10b-23879
  MatStudio         3D                             0

 64 69  0  0  0  0  0  0  0  0999 V2000
   11.1943  -11.0993   -4.5448 C   0  0  0  0  0  0  0  0  0  1
    9.6669  -11.2160   -5.3303 S   0  0  0  0  0  0  0  0  0  2
   12.1939  -11.6430   -5.3270 C   0  0  0  0  0  0  0  0  0  3
   10.3547  -11.9782   -6.6834 C   0  0  0  0  0  0  0  0  0  4
   11.7119  -12.1431   -6.5462 C   0  0  0  0  0  0  0  0  0  5
    8.6738   -9.1349   -1.1990 C   0  0  0  0  0  0  0  0  0  6
    7.3603   -9.5952   -2.2123 S   0  0  0  0  0  0  0  0  0  7
    8.2190   -8.5026   -0.0587 C   0  0  0  0  0  0  0  0  0  8
    6.2215   -8.9547   -1.1268 C   0  0  0  0  0  0  0  0  0  9
    6.8201   -8.4015   -0.0206 C   0  0  0  0  0  0  0  0  0 10
   26.6401  -16.2915    2.5495 N   0  0  0  0  0  0  0  0  0 11
   13.5665   -9.4312   -0.5111 C   0  0  0  0  0  0  0  0  0 12
   11.2896  -10.4972   -3.2521 C   0  0  0  0  0  0  0  0  0 13
   12.4248  -10.3132   -2.5347 C   0  0  0  0  0  0  0  0  0 14
   10.0737  -10.0938   -2.7812 O   0  0  0  0  0  0  0  0  0 15
   12.4193   -9.6357   -1.2797 C   0  0  0  0  0  0  0  0  0 16
   10.0157   -9.4423   -1.5823 C   0  0  0  0  0  0  0  0  0 17
   11.1346   -9.1770   -0.8654 C   0  0  0  0  0  0  0  0  0 18
   13.5705   -8.4120    0.5395 C   0  0  0  0  0  0  0  0  0 19
   13.0193   -7.1433    0.3241 C   0  0  0  0  0  0  0  0  0 20
   14.1435   -8.6732    1.7900 C   0  0  0  0  0  0  0  0  0 21
   13.0338   -6.1788    1.3199 C   0  0  0  0  0  0  0  0  0 22
   14.1567   -7.7118    2.7873 C   0  0  0  0  0  0  0  0  0 23
   13.6015   -6.4584    2.5570 C   0  0  0  0  0  0  0  0  0 24
   14.7561  -10.2308   -0.6757 C   0  0  0  0  0  0  0  0  0 25
   14.7007  -11.5786   -1.0831 C   0  0  0  0  0  0  0  0  0 26
   16.0244   -9.7165   -0.3398 C   0  0  0  0  0  0  0  0  0 27
   15.8240  -12.3708   -1.1175 C   0  0  0  0  0  0  0  0  0 28
   17.1562  -10.4962   -0.3778 C   0  0  0  0  0  0  0  0  0 29
   17.0775  -11.8529   -0.7431 C   0  0  0  0  0  0  0  0  0 30
   18.1928  -12.6824   -0.6505 C   0  0  0  0  0  0  0  0  0 31
   19.1537  -13.4293   -0.4927 C   0  0  0  0  0  0  0  0  0 32
   20.2179  -14.2673   -0.2288 C   0  0  0  0  0  0  0  0  0 33
   21.5735  -13.7198    0.6795 S   0  0  0  0  0  0  0  0  0 34
   20.3597  -15.6170   -0.5640 C   0  0  0  0  0  0  0  0  0 35
   22.3117  -15.2868    0.6589 C   0  0  0  0  0  0  0  0  0 36
   21.5223  -16.1825   -0.0694 C   0  0  0  0  0  0  0  0  0 37
   23.5646  -15.4251    1.2907 C   0  0  0  0  0  0  0  0  0 38
   24.2049  -16.5526    1.7483 C   0  0  0  0  0  0  0  0  0 39
   25.5383  -16.4168    2.1875 C   0  0  0  0  0  0  0  0  0 40
   23.6768  -17.9103    1.9210 C   0  0  0  0  0  0  0  0  0 41
   24.4086  -18.8692    2.1074 O   0  0  0  0  0  0  0  0  0 42
   22.3497  -18.0815    1.9377 O   0  0  0  0  0  0  0  0  0 43
   13.2430  -11.6770   -5.0220 H   0  0  0  0  0  0  0  0  0 44
    9.7167  -12.2697   -7.5191 H   0  0  0  0  0  0  0  0  0 45
   12.3390  -12.6131   -7.3069 H   0  0  0  0  0  0  0  0  0 46
    8.8827   -8.1301    0.7258 H   0  0  0  0  0  0  0  0  0 47
    5.1580   -9.0203   -1.3617 H   0  0  0  0  0  0  0  0  0 48
    6.2600   -7.9390    0.7952 H   0  0  0  0  0  0  0  0  0 49
   13.3669  -10.6356   -2.9849 H   0  0  0  0  0  0  0  0  0 50
   11.0199   -8.6657    0.0938 H   0  0  0  0  0  0  0  0  0 51
   12.5915   -6.9086   -0.6574 H   0  0  0  0  0  0  0  0  0 52
   14.5781   -9.6612    1.9790 H   0  0  0  0  0  0  0  0  0 53
   12.6061   -5.1903    1.1229 H   0  0  0  0  0  0  0  0  0 54
   14.6035   -7.9446    3.7594 H   0  0  0  0  0  0  0  0  0 55
   13.6160   -5.6960    3.3423 H   0  0  0  0  0  0  0  0  0 56
   13.7295  -12.0311   -1.3078 H   0  0  0  0  0  0  0  0  0 57
   16.1068   -8.6679   -0.0362 H   0  0  0  0  0  0  0  0  0 58
   15.7430  -13.4274   -1.3891 H   0  0  0  0  0  0  0  0  0 59
   18.1277  -10.0714   -0.1079 H   0  0  0  0  0  0  0  0  0 60
   19.6207  -16.1449   -1.1696 H   0  0  0  0  0  0  0  0  0 61
   21.8292  -17.2089   -0.2861 H   0  0  0  0  0  0  0  0  0 62
   24.1153  -14.4875    1.4410 H   0  0  0  0  0  0  0  0  0 63
   21.8712  -17.2223    1.8363 H   0  0  0  0  0  0  0  0  0 64
  1  2  1  0  0  0
  1  3  2  0  0  0
  2  4  1  0  0  0
  3  5  1  0  0  0
  4  5  2  0  0  0
  6  7  1  0  0  0
  6  8  2  0  0  0
  7  9  1  0  0  0
  8 10  1  0  0  0
  9 10  2  0  0  0
 13 14  2  0  0  0
 13 15  1  0  0  0
 14 16  1  0  0  0
 15 17  1  0  0  0
 16 18  1  0  0  0
 17 18  2  0  0  0
 12 16  2  0  0  0
 19 20  1  0  0  0
 19 21  2  0  0  0
 20 22  2  0  0  0
 21 23  1  0  0  0
 22 24  1  0  0  0
 23 24  2  0  0  0
 12 19  1  0  0  0
 25 26  1  0  0  0
 25 27  2  0  0  0
 26 28  2  0  0  0
 27 29  1  0  0  0
 28 30  1  0  0  0
 29 30  2  0  0  0
 12 25  1  0  0  0
 30 31  1  0  0  0
 31 32  3  0  0  0
 33 34  1  0  0  0
 33 35  2  0  0  0
 34 36  1  0  0  0
 35 37  1  0  0  0
 36 37  2  0  0  0
 32 33  1  0  0  0
 36 38  1  0  0  0
 38 39  2  0  0  0
 39 40  1  0  0  0
 39 41  1  0  0  0
 11 40  3  0  0  0
 41 42  2  0  0  0
 41 43  1  0  0  0
 13  1  1  0  0  0
 17  6  1  0  0  0
  3 44  1  0  0  0
  4 45  1  0  0  0
  5 46  1  0  0  0
  8 47  1  0  0  0
  9 48  1  0  0  0
 10 49  1  0  0  0
 14 50  1  0  0  0
 18 51  1  0  0  0
 20 52  1  0  0  0
 21 53  1  0  0  0
 22 54  1  0  0  0
 23 55  1  0  0  0
 24 56  1  0  0  0
 26 57  1  0  0  0
 27 58  1  0  0  0
 28 59  1  0  0  0
 29 60  1  0  0  0
 35 61  1  0  0  0
 37 62  1  0  0  0
 38 63  1  0  0  0
 43 64  1  0  0  0
M  END
