12a-25897
  MatStudio         3D                             0

 64 69  0  0  0  0  0  0  0  0999 V2000
   16.5555  -11.2194    0.2448 C   0  0  0  0  0  0  0  0  0  1
   15.2057  -10.6745    1.1938 S   0  0  0  0  0  0  0  0  0  2
   16.1632  -11.4352   -1.0753 C   0  0  0  0  0  0  0  0  0  3
   14.1257  -10.7670   -0.1577 C   0  0  0  0  0  0  0  0  0  4
   14.8178  -11.2007   -1.2895 C   0  0  0  0  0  0  0  0  0  5
   26.2659  -15.8615   -0.9405 N   0  0  0  0  0  0  0  0  0  6
   12.7104  -10.5711   -0.0967 C   0  0  0  0  0  0  0  0  0  7
   13.3780   -4.4292    4.3982 C   0  0  0  0  0  0  0  0  0  8
   14.2595   -5.4185    3.9754 C   0  0  0  0  0  0  0  0  0  9
   12.0231   -4.5522    4.1227 C   0  0  0  0  0  0  0  0  0 10
   13.7928   -6.5188    3.2780 C   0  0  0  0  0  0  0  0  0 11
   11.5507   -5.6535    3.4276 C   0  0  0  0  0  0  0  0  0 12
   12.4314   -6.6476    2.9913 C   0  0  0  0  0  0  0  0  0 13
   11.9250   -7.7855    2.2481 C   0  0  0  0  0  0  0  0  0 14
   12.6597   -8.6750    1.5334 C   0  0  0  0  0  0  0  0  0 15
   10.5670   -7.8604    2.2926 O   0  0  0  0  0  0  0  0  0 16
   12.0389   -9.7007    0.7625 C   0  0  0  0  0  0  0  0  0 17
    9.9266   -8.8596    1.6270 C   0  0  0  0  0  0  0  0  0 18
   10.6214   -9.7514    0.8849 C   0  0  0  0  0  0  0  0  0 19
    8.4888   -8.8324    1.8049 C   0  0  0  0  0  0  0  0  0 20
    7.8995   -7.8979    2.6604 C   0  0  0  0  0  0  0  0  0 21
    7.6661   -9.7267    1.1126 C   0  0  0  0  0  0  0  0  0 22
    6.5233   -7.8632    2.8216 C   0  0  0  0  0  0  0  0  0 23
    6.2944   -9.6935    1.2824 C   0  0  0  0  0  0  0  0  0 24
    5.7156   -8.7609    2.1370 C   0  0  0  0  0  0  0  0  0 25
   17.7981  -11.5286    0.7477 C   0  0  0  0  0  0  0  0  0 26
   18.9259  -11.9310    1.0334 C   0  0  0  0  0  0  0  0  0 27
   20.1615  -12.5120    1.2126 C   0  0  0  0  0  0  0  0  0 28
   21.0090  -13.1140   -0.1631 S   0  0  0  0  0  0  0  0  0 29
   20.8756  -12.7755    2.3861 C   0  0  0  0  0  0  0  0  0 30
   22.2836  -13.7646    0.8136 C   0  0  0  0  0  0  0  0  0 31
   22.0492  -13.4758    2.1630 C   0  0  0  0  0  0  0  0  0 32
   23.3593  -14.3830    0.1456 C   0  0  0  0  0  0  0  0  0 33
   24.2934  -15.2795    0.6119 C   0  0  0  0  0  0  0  0  0 34
   25.3751  -15.6004   -0.2336 C   0  0  0  0  0  0  0  0  0 35
   24.2847  -16.0468    1.8602 C   0  0  0  0  0  0  0  0  0 36
   25.2649  -16.6618    2.2501 O   0  0  0  0  0  0  0  0  0 37
   23.1390  -16.1285    2.5482 O   0  0  0  0  0  0  0  0  0 38
   11.9665  -11.3733   -1.0574 C   0  0  0  0  0  0  0  0  0 39
   10.8177  -10.6849   -2.1508 S   0  0  0  0  0  0  0  0  0 40
   12.0994  -12.7216   -1.3125 C   0  0  0  0  0  0  0  0  0 41
   10.5069  -12.1820   -2.8965 C   0  0  0  0  0  0  0  0  0 42
   11.2668  -13.1835   -2.3483 C   0  0  0  0  0  0  0  0  0 43
   16.8673  -11.7806   -1.8351 H   0  0  0  0  0  0  0  0  0 44
   14.3141  -11.3375   -2.2486 H   0  0  0  0  0  0  0  0  0 45
   13.7496   -3.5594    4.9489 H   0  0  0  0  0  0  0  0  0 46
   15.3271   -5.3332    4.1991 H   0  0  0  0  0  0  0  0  0 47
   11.3223   -3.7784    4.4514 H   0  0  0  0  0  0  0  0  0 48
   14.4978   -7.2972    2.9684 H   0  0  0  0  0  0  0  0  0 49
   10.4840   -5.7439    3.2034 H   0  0  0  0  0  0  0  0  0 50
   13.7430   -8.5293    1.4950 H   0  0  0  0  0  0  0  0  0 51
   10.0697  -10.5488    0.3844 H   0  0  0  0  0  0  0  0  0 52
    8.5343   -7.1939    3.2062 H   0  0  0  0  0  0  0  0  0 53
    8.1006  -10.4541    0.4196 H   0  0  0  0  0  0  0  0  0 54
    6.0755   -7.1237    3.4927 H   0  0  0  0  0  0  0  0  0 55
    5.6654  -10.4025    0.7355 H   0  0  0  0  0  0  0  0  0 56
    4.6292   -8.7348    2.2662 H   0  0  0  0  0  0  0  0  0 57
   20.5251  -12.4497    3.3671 H   0  0  0  0  0  0  0  0  0 58
   22.7569  -13.7232    2.9589 H   0  0  0  0  0  0  0  0  0 59
   23.4746  -14.1005   -0.9092 H   0  0  0  0  0  0  0  0  0 60
   22.4077  -15.6421    2.0933 H   0  0  0  0  0  0  0  0  0 61
   12.7890  -13.3537   -0.7462 H   0  0  0  0  0  0  0  0  0 62
    9.7761  -12.2467   -3.7040 H   0  0  0  0  0  0  0  0  0 63
   11.2184  -14.2232   -2.6801 H   0  0  0  0  0  0  0  0  0 64
  1  2  1  0  0  0
  1  3  2  0  0  0
  2  4  1  0  0  0
  3  5  1  0  0  0
  4  5  2  0  0  0
  8  9  1  0  0  0
  8 10  2  0  0  0
  9 11  2  0  0  0
 10 12  1  0  0  0
 11 13  1  0  0  0
 12 13  2  0  0  0
 14 15  2  0  0  0
 14 16  1  0  0  0
 15 17  1  0  0  0
 16 18  1  0  0  0
 17 19  1  0  0  0
 18 19  2  0  0  0
 13 14  1  0  0  0
 20 21  1  0  0  0
 20 22  2  0  0  0
 21 23  2  0  0  0
 22 24  1  0  0  0
 23 25  1  0  0  0
 24 25  2  0  0  0
 18 20  1  0  0  0
  7 17  2  0  0  0
 26 27  3  0  0  0
 28 29  1  0  0  0
 28 30  2  0  0  0
 29 31  1  0  0  0
 30 32  1  0  0  0
 31 32  2  0  0  0
 27 28  1  0  0  0
 31 33  1  0  0  0
 33 34  2  0  0  0
 34 35  1  0  0  0
 34 36  1  0  0  0
  6 35  3  0  0  0
 36 37  2  0  0  0
 36 38  1  0  0  0
 26  1  1  0  0  0
  7  4  1  0  0  0
 39 40  1  0  0  0
 39 41  2  0  0  0
 40 42  1  0  0  0
 41 43  1  0  0  0
 42 43  2  0  0  0
  7 39  1  0  0  0
  3 44  1  0  0  0
  5 45  1  0  0  0
  8 46  1  0  0  0
  9 47  1  0  0  0
 10 48  1  0  0  0
 11 49  1  0  0  0
 12 50  1  0  0  0
 15 51  1  0  0  0
 19 52  1  0  0  0
 21 53  1  0  0  0
 22 54  1  0  0  0
 23 55  1  0  0  0
 24 56  1  0  0  0
 25 57  1  0  0  0
 30 58  1  0  0  0
 32 59  1  0  0  0
 33 60  1  0  0  0
 38 61  1  0  0  0
 41 62  1  0  0  0
 42 63  1  0  0  0
 43 64  1  0  0  0
M  END
