12b-12270
  MatStudio         3D                             0

 58 63  0  0  0  0  0  0  0  0999 V2000
   16.5528  -11.4222    0.5554 C   0  0  0  0  0  0  0  0  0  1
   14.9737  -12.0648    0.8849 S   0  0  0  0  0  0  0  0  0  2
   16.4545  -10.1082    0.1062 C   0  0  0  0  0  0  0  0  0  3
   14.1861  -10.6117    0.3743 C   0  0  0  0  0  0  0  0  0  4
   15.1447   -9.6580    0.0271 C   0  0  0  0  0  0  0  0  0  5
   26.6449  -15.7585    0.3406 N   0  0  0  0  0  0  0  0  0  6
   12.7643  -10.4244    0.3633 C   0  0  0  0  0  0  0  0  0  7
   11.6163  -15.0058   -1.1466 C   0  0  0  0  0  0  0  0  0  8
   11.3124  -13.7042   -0.6396 C   0  0  0  0  0  0  0  0  0  9
   12.2267  -12.7453   -0.3532 C   0  0  0  0  0  0  0  0  0 10
    9.9743  -13.4914   -0.4866 O   0  0  0  0  0  0  0  0  0 11
   11.8499  -11.4514    0.1065 C   0  0  0  0  0  0  0  0  0 12
    9.5590  -12.2643   -0.0571 C   0  0  0  0  0  0  0  0  0 13
   10.4418  -11.2757    0.2342 C   0  0  0  0  0  0  0  0  0 14
    8.1341  -12.1795    0.0236 C   0  0  0  0  0  0  0  0  0 15
   17.6711  -12.2049    0.7261 C   0  0  0  0  0  0  0  0  0 16
   18.6527  -12.9305    0.8776 C   0  0  0  0  0  0  0  0  0 17
   19.7317  -13.7663    1.0626 C   0  0  0  0  0  0  0  0  0 18
   21.2859  -13.3965    0.4329 S   0  0  0  0  0  0  0  0  0 19
   19.7502  -14.9894    1.7506 C   0  0  0  0  0  0  0  0  0 20
   21.9703  -14.8607    1.0777 C   0  0  0  0  0  0  0  0  0 21
   20.9910  -15.5925    1.7581 C   0  0  0  0  0  0  0  0  0 22
   23.3324  -15.0667    0.8275 C   0  0  0  0  0  0  0  0  0 23
   24.2161  -16.0833    1.1433 C   0  0  0  0  0  0  0  0  0 24
   25.5464  -15.9119    0.7053 C   0  0  0  0  0  0  0  0  0 25
   23.9416  -17.3060    1.8811 C   0  0  0  0  0  0  0  0  0 26
   22.8715  -17.6349    2.3784 O   0  0  0  0  0  0  0  0  0 27
   25.0332  -18.0846    1.9746 O   0  0  0  0  0  0  0  0  0 28
   12.3388   -9.0594    0.6226 C   0  0  0  0  0  0  0  0  0 29
   11.1848   -8.2162   -0.3527 S   0  0  0  0  0  0  0  0  0 30
   12.8298   -8.2090    1.5937 C   0  0  0  0  0  0  0  0  0 31
   11.3334   -6.7853    0.5580 C   0  0  0  0  0  0  0  0  0 32
   12.2539   -6.9257    1.5662 C   0  0  0  0  0  0  0  0  0 33
   17.3370   -9.5215   -0.1593 H   0  0  0  0  0  0  0  0  0 34
   14.8598   -8.6598   -0.3120 H   0  0  0  0  0  0  0  0  0 35
   13.2752  -12.9853   -0.5431 H   0  0  0  0  0  0  0  0  0 36
   10.0351  -10.3213    0.5804 H   0  0  0  0  0  0  0  0  0 37
   18.8568  -15.3874    2.2371 H   0  0  0  0  0  0  0  0  0 38
   21.2484  -16.5404    2.2370 H   0  0  0  0  0  0  0  0  0 39
   23.8067  -14.2555    0.2589 H   0  0  0  0  0  0  0  0  0 40
   24.7640  -18.8854    2.4816 H   0  0  0  0  0  0  0  0  0 41
   13.5853   -8.5314    2.3160 H   0  0  0  0  0  0  0  0  0 42
   10.7273   -5.9150    0.2986 H   0  0  0  0  0  0  0  0  0 43
   12.4995   -6.1272    2.2717 H   0  0  0  0  0  0  0  0  0 44
   12.8564  -15.5894   -1.3163 C   0  0  0  0  0  0  0  0  0 45
   12.7763  -16.8764   -1.8676 C   0  0  0  0  0  0  0  0  0 46
   11.4802  -17.2659   -2.1056 C   0  0  0  0  0  0  0  0  0 47
   10.3643  -16.0627   -1.6668 S   0  0  0  0  0  0  0  0  0 48
    7.2136  -13.1466   -0.3255 C   0  0  0  0  0  0  0  0  0 49
    5.8871  -12.7143   -0.1592 C   0  0  0  0  0  0  0  0  0 50
    5.8092  -11.4311    0.3199 C   0  0  0  0  0  0  0  0  0 51
    7.3478  -10.7492    0.5666 S   0  0  0  0  0  0  0  0  0 52
   13.7899  -15.0932   -1.0378 H   0  0  0  0  0  0  0  0  0 53
   13.6412  -17.5079   -2.0806 H   0  0  0  0  0  0  0  0  0 54
   11.1201  -18.2072   -2.5234 H   0  0  0  0  0  0  0  0  0 55
    7.5070  -14.1290   -0.7022 H   0  0  0  0  0  0  0  0  0 56
    5.0100  -13.3223   -0.3896 H   0  0  0  0  0  0  0  0  0 57
    4.9191  -10.8453    0.5553 H   0  0  0  0  0  0  0  0  0 58
  1  2  1  0  0  0
  1  3  2  0  0  0
  2  4  1  0  0  0
  3  5  1  0  0  0
  4  5  2  0  0  0
  9 10  2  0  0  0
  9 11  1  0  0  0
 10 12  1  0  0  0
 11 13  1  0  0  0
 12 14  1  0  0  0
 13 14  2  0  0  0
  8  9  1  0  0  0
 13 15  1  0  0  0
  7 12  2  0  0  0
 16 17  3  0  0  0
 18 19  1  0  0  0
 18 20  2  0  0  0
 19 21  1  0  0  0
 20 22  1  0  0  0
 21 22  2  0  0  0
 17 18  1  0  0  0
 21 23  1  0  0  0
 23 24  2  0  0  0
 24 25  1  0  0  0
 24 26  1  0  0  0
  6 25  3  0  0  0
 26 27  2  0  0  0
 26 28  1  0  0  0
 16  1  1  0  0  0
  7  4  1  0  0  0
 29 30  1  0  0  0
 29 31  2  0  0  0
 30 32  1  0  0  0
 31 33  1  0  0  0
 32 33  2  0  0  0
  7 29  1  0  0  0
  3 34  1  0  0  0
  5 35  1  0  0  0
 10 36  1  0  0  0
 14 37  1  0  0  0
 20 38  1  0  0  0
 22 39  1  0  0  0
 23 40  1  0  0  0
 28 41  1  0  0  0
 31 42  1  0  0  0
 32 43  1  0  0  0
 33 44  1  0  0  0
 46 45  1  0  0  0
 47 46  2  0  0  0
 48 47  1  0  0  0
  8 45  2  0  0  0
  8 48  1  0  0  0
 50 49  1  0  0  0
 51 50  2  0  0  0
 52 51  1  0  0  0
 15 49  2  0  0  0
 15 52  1  0  0  0
 45 53  1  0  0  0
 46 54  1  0  0  0
 47 55  1  0  0  0
 49 56  1  0  0  0
 50 57  1  0  0  0
 51 58  1  0  0  0
M  END
