20a-45541
  MatStudio         3D                             0

 70 75  0  0  0  0  0  0  0  0999 V2000
   24.3331  -11.1577    7.5906 N   0  0  0  0  0  0  0  0  0  1
   12.8837  -10.3055   -1.8840 C   0  0  0  0  0  0  0  0  0  2
   15.0082   -9.5114   -9.1750 C   0  0  0  0  0  0  0  0  0  3
   13.6411   -9.7472   -9.2210 C   0  0  0  0  0  0  0  0  0  4
   15.6708   -9.5426   -7.9522 C   0  0  0  0  0  0  0  0  0  5
   12.9387  -10.0075   -8.0552 C   0  0  0  0  0  0  0  0  0  6
   14.9738   -9.8044   -6.7859 C   0  0  0  0  0  0  0  0  0  7
   13.5959  -10.0362   -6.8219 C   0  0  0  0  0  0  0  0  0  8
   12.8476  -10.3019   -5.6073 C   0  0  0  0  0  0  0  0  0  9
   13.3082  -10.1935   -4.3376 C   0  0  0  0  0  0  0  0  0 10
   11.5603  -10.6638   -5.8638 O   0  0  0  0  0  0  0  0  0 11
   12.4631  -10.4100   -3.2074 C   0  0  0  0  0  0  0  0  0 12
   10.7044  -10.8708   -4.8251 C   0  0  0  0  0  0  0  0  0 13
   11.1148  -10.7320   -3.5441 C   0  0  0  0  0  0  0  0  0 14
    9.3784  -11.2645   -5.2613 C   0  0  0  0  0  0  0  0  0 15
    9.1389  -11.5562   -6.6067 C   0  0  0  0  0  0  0  0  0 16
    8.3214  -11.3599   -4.3510 C   0  0  0  0  0  0  0  0  0 17
    7.8754  -11.9399   -7.0279 C   0  0  0  0  0  0  0  0  0 18
    7.0624  -11.7438   -4.7756 C   0  0  0  0  0  0  0  0  0 19
    6.8334  -12.0374   -6.1159 C   0  0  0  0  0  0  0  0  0 20
   11.8880  -10.2109   -0.8112 C   0  0  0  0  0  0  0  0  0 21
   10.7973   -9.3394   -0.9017 C   0  0  0  0  0  0  0  0  0 22
   12.0118  -10.9910    0.3437 C   0  0  0  0  0  0  0  0  0 23
    9.8608   -9.2589    0.1184 C   0  0  0  0  0  0  0  0  0 24
   11.0753  -10.9150    1.3623 C   0  0  0  0  0  0  0  0  0 25
    9.9945  -10.0478    1.2541 C   0  0  0  0  0  0  0  0  0 26
   14.2713  -10.3353   -1.4854 C   0  0  0  0  0  0  0  0  0 27
   14.6763   -9.6888   -0.3009 C   0  0  0  0  0  0  0  0  0 28
   15.2504  -11.0755   -2.1766 C   0  0  0  0  0  0  0  0  0 29
   15.9569   -9.7980    0.1833 C   0  0  0  0  0  0  0  0  0 30
   16.5342  -11.2034   -1.6944 C   0  0  0  0  0  0  0  0  0 31
   16.9103  -10.5861   -0.4883 C   0  0  0  0  0  0  0  0  0 32
   18.1562  -10.7973    0.1001 C   0  0  0  0  0  0  0  0  0 33
   19.1935  -10.9967    0.7247 C   0  0  0  0  0  0  0  0  0 34
   20.2931  -11.2550    1.5189 C   0  0  0  0  0  0  0  0  0 35
   20.3327  -10.6926    3.1462 S   0  0  0  0  0  0  0  0  0 36
   21.4430  -11.9909    1.2225 C   0  0  0  0  0  0  0  0  0 37
   21.8503  -11.4672    3.4543 C   0  0  0  0  0  0  0  0  0 38
   22.3063  -12.1100    2.2991 C   0  0  0  0  0  0  0  0  0 39
   22.4227  -11.3009    4.7336 C   0  0  0  0  0  0  0  0  0 40
   23.3605  -12.0666    5.3841 C   0  0  0  0  0  0  0  0  0 41
   23.8941  -11.5704    6.5917 C   0  0  0  0  0  0  0  0  0 42
   23.8563  -13.4045    5.0405 C   0  0  0  0  0  0  0  0  0 43
   24.8438  -13.8829    5.5750 O   0  0  0  0  0  0  0  0  0 44
   23.1603  -14.1372    4.1647 O   0  0  0  0  0  0  0  0  0 45
   15.5625   -9.3033  -10.0955 H   0  0  0  0  0  0  0  0  0 46
   13.1101   -9.7259  -10.1778 H   0  0  0  0  0  0  0  0  0 47
   16.7493   -9.3628   -7.9081 H   0  0  0  0  0  0  0  0  0 48
   11.8600  -10.1848   -8.0931 H   0  0  0  0  0  0  0  0  0 49
   15.5148   -9.8377   -5.8347 H   0  0  0  0  0  0  0  0  0 50
   14.3358   -9.8533   -4.1926 H   0  0  0  0  0  0  0  0  0 51
   10.3982  -10.9387   -2.7468 H   0  0  0  0  0  0  0  0  0 52
    9.9602  -11.4869   -7.3261 H   0  0  0  0  0  0  0  0  0 53
    8.4800  -11.1187   -3.2950 H   0  0  0  0  0  0  0  0  0 54
    7.7039  -12.1681   -8.0845 H   0  0  0  0  0  0  0  0  0 55
    6.2456  -11.8123   -4.0505 H   0  0  0  0  0  0  0  0  0 56
    5.8360  -12.3404   -6.4492 H   0  0  0  0  0  0  0  0  0 57
   10.6993   -8.6988   -1.7858 H   0  0  0  0  0  0  0  0  0 58
   12.8608  -11.6782    0.4319 H   0  0  0  0  0  0  0  0  0 59
    9.0215   -8.5614    0.0293 H   0  0  0  0  0  0  0  0  0 60
   11.1883  -11.5440    2.2512 H   0  0  0  0  0  0  0  0  0 61
    9.2571   -9.9821    2.0605 H   0  0  0  0  0  0  0  0  0 62
   13.9447   -9.0890    0.2499 H   0  0  0  0  0  0  0  0  0 63
   14.9688  -11.6316   -3.0768 H   0  0  0  0  0  0  0  0  0 64
   16.2430   -9.2903    1.1094 H   0  0  0  0  0  0  0  0  0 65
   17.2589  -11.8292   -2.2235 H   0  0  0  0  0  0  0  0  0 66
   21.6273  -12.4082    0.2307 H   0  0  0  0  0  0  0  0  0 67
   23.2820  -12.5983    2.2315 H   0  0  0  0  0  0  0  0  0 68
   22.0693  -10.4243    5.2922 H   0  0  0  0  0  0  0  0  0 69
   22.3564  -13.6578    3.8453 H   0  0  0  0  0  0  0  0  0 70
  3  4  1  0  0  0
  3  5  2  0  0  0
  4  6  2  0  0  0
  5  7  1  0  0  0
  6  8  1  0  0  0
  7  8  2  0  0  0
  9 10  2  0  0  0
  9 11  1  0  0  0
 10 12  1  0  0  0
 11 13  1  0  0  0
 12 14  1  0  0  0
 13 14  2  0  0  0
  8  9  1  0  0  0
 15 16  1  0  0  0
 15 17  2  0  0  0
 16 18  2  0  0  0
 17 19  1  0  0  0
 18 20  1  0  0  0
 19 20  2  0  0  0
 13 15  1  0  0  0
  2 12  2  0  0  0
 21 22  1  0  0  0
 21 23  2  0  0  0
 22 24  2  0  0  0
 23 25  1  0  0  0
 24 26  1  0  0  0
 25 26  2  0  0  0
  2 21  1  0  0  0
 27 28  1  0  0  0
 27 29  2  0  0  0
 28 30  2  0  0  0
 29 31  1  0  0  0
 30 32  1  0  0  0
 31 32  2  0  0  0
  2 27  1  0  0  0
 32 33  1  0  0  0
 33 34  3  0  0  0
 35 36  1  0  0  0
 35 37  2  0  0  0
 36 38  1  0  0  0
 37 39  1  0  0  0
 38 39  2  0  0  0
 34 35  1  0  0  0
 38 40  1  0  0  0
 40 41  2  0  0  0
 41 42  1  0  0  0
 41 43  1  0  0  0
  1 42  3  0  0  0
 43 44  2  0  0  0
 43 45  1  0  0  0
  3 46  1  0  0  0
  4 47  1  0  0  0
  5 48  1  0  0  0
  6 49  1  0  0  0
  7 50  1  0  0  0
 10 51  1  0  0  0
 14 52  1  0  0  0
 16 53  1  0  0  0
 17 54  1  0  0  0
 18 55  1  0  0  0
 19 56  1  0  0  0
 20 57  1  0  0  0
 22 58  1  0  0  0
 23 59  1  0  0  0
 24 60  1  0  0  0
 25 61  1  0  0  0
 26 62  1  0  0  0
 28 63  1  0  0  0
 29 64  1  0  0  0
 30 65  1  0  0  0
 31 66  1  0  0  0
 37 67  1  0  0  0
 39 68  1  0  0  0
 40 69  1  0  0  0
 45 70  1  0  0  0
M  END
