22a-28522
  MatStudio         3D                             0

 84 91  0  0  0  0  0  0  0  0999 V2000
   20.7289  -23.7464    0.1315 C   0  0  0  0  0  0  0  0  0  1
   22.0114  -24.2295    1.1733 S   0  0  0  0  0  0  0  0  0  2
   20.9319  -24.2037   -1.1698 C   0  0  0  0  0  0  0  0  0  3
   22.8295  -25.0470   -0.1223 C   0  0  0  0  0  0  0  0  0  4
   22.1013  -24.9291   -1.3081 C   0  0  0  0  0  0  0  0  0  5
   20.2298  -24.0016   -1.9833 H   0  0  0  0  0  0  0  0  0  6
   22.4512  -25.3761   -2.2422 H   0  0  0  0  0  0  0  0  0  7
   17.7249  -21.4175    0.8405 C   0  0  0  0  0  0  0  0  0  8
   18.5080  -22.2496   -0.4475 S   0  0  0  0  0  0  0  0  0  9
   18.3484  -21.6840    2.0521 C   0  0  0  0  0  0  0  0  0 10
   19.6733  -22.9419    0.6255 C   0  0  0  0  0  0  0  0  0 11
   19.4420  -22.5334    1.9299 C   0  0  0  0  0  0  0  0  0 12
   24.3874  -24.9273    3.4486 N   0  0  0  0  0  0  0  0  0 13
   13.5293  -11.5384    4.4865 C   0  0  0  0  0  0  0  0  0 14
   11.1408   -9.2833    2.7391 C   0  0  0  0  0  0  0  0  0 15
   11.7598  -10.4184    3.1394 C   0  0  0  0  0  0  0  0  0 16
   11.5599   -8.0574    3.1645 O   0  0  0  0  0  0  0  0  0 17
   12.8547  -10.4019    4.0579 C   0  0  0  0  0  0  0  0  0 18
   12.5940   -7.9797    4.0512 C   0  0  0  0  0  0  0  0  0 19
   13.2060   -9.0935    4.5111 C   0  0  0  0  0  0  0  0  0 20
   14.4124  -11.4652    5.6549 C   0  0  0  0  0  0  0  0  0 21
   14.0123  -10.8210    6.8309 C   0  0  0  0  0  0  0  0  0 22
   15.6834  -12.0509    5.6307 C   0  0  0  0  0  0  0  0  0 23
   14.8532  -10.7508    7.9317 C   0  0  0  0  0  0  0  0  0 24
   16.5269  -11.9792    6.7280 C   0  0  0  0  0  0  0  0  0 25
   16.1158  -11.3287    7.8857 C   0  0  0  0  0  0  0  0  0 26
   13.4593  -12.8098    3.7958 C   0  0  0  0  0  0  0  0  0 27
   13.6629  -14.0095    4.5017 C   0  0  0  0  0  0  0  0  0 28
   13.2978  -12.9107    2.4021 C   0  0  0  0  0  0  0  0  0 29
   13.7553  -15.2231    3.8598 C   0  0  0  0  0  0  0  0  0 30
   13.3918  -14.1202    1.7471 C   0  0  0  0  0  0  0  0  0 31
   13.6582  -15.3008    2.4595 C   0  0  0  0  0  0  0  0  0 32
   13.9564  -16.5031    1.8100 C   0  0  0  0  0  0  0  0  0 33
   14.3613  -17.5249    1.2667 C   0  0  0  0  0  0  0  0  0 34
   15.0212  -18.6462    0.7885 C   0  0  0  0  0  0  0  0  0 35
   16.1488  -19.4379    1.8386 S   0  0  0  0  0  0  0  0  0 36
   15.0381  -19.2270   -0.4720 C   0  0  0  0  0  0  0  0  0 37
   16.6524  -20.5166    0.5939 C   0  0  0  0  0  0  0  0  0 38
   15.9541  -20.2740   -0.5784 C   0  0  0  0  0  0  0  0  0 39
   24.0563  -25.7004   -0.0011 C   0  0  0  0  0  0  0  0  0 40
   24.8674  -25.8462    1.0984 C   0  0  0  0  0  0  0  0  0 41
   24.5623  -25.3291    2.3633 C   0  0  0  0  0  0  0  0  0 42
   26.1298  -26.5745    0.9468 C   0  0  0  0  0  0  0  0  0 43
   26.4950  -27.0744   -0.1049 O   0  0  0  0  0  0  0  0  0 44
   26.9062  -26.6755    2.0356 O   0  0  0  0  0  0  0  0  0 45
    8.2327   -7.8846    0.8432 C   0  0  0  0  0  0  0  0  0 46
    9.3323   -7.9772    1.6820 C   0  0  0  0  0  0  0  0  0 47
    7.7732   -9.0061    0.1664 C   0  0  0  0  0  0  0  0  0 48
    9.9905   -9.1971    1.8588 C   0  0  0  0  0  0  0  0  0 49
    8.4251  -10.2236    0.3337 C   0  0  0  0  0  0  0  0  0 50
    9.5230  -10.3202    1.1697 C   0  0  0  0  0  0  0  0  0 51
   12.9436   -6.6114    4.3835 C   0  0  0  0  0  0  0  0  0 52
   12.2793   -5.5462    3.7695 C   0  0  0  0  0  0  0  0  0 53
   13.9509   -6.3285    5.3116 C   0  0  0  0  0  0  0  0  0 54
   12.6181   -4.2363    4.0715 C   0  0  0  0  0  0  0  0  0 55
   14.2870   -5.0205    5.6088 C   0  0  0  0  0  0  0  0  0 56
   13.6224   -3.9662    4.9906 C   0  0  0  0  0  0  0  0  0 57
   18.0085  -21.2527    2.9979 H   0  0  0  0  0  0  0  0  0 58
   20.0645  -22.8551    2.7699 H   0  0  0  0  0  0  0  0  0 59
   11.3491  -11.3723    2.8013 H   0  0  0  0  0  0  0  0  0 60
   14.0418   -8.9751    5.2034 H   0  0  0  0  0  0  0  0  0 61
   13.0098  -10.3805    6.8812 H   0  0  0  0  0  0  0  0  0 62
   16.0137  -12.5640    4.7205 H   0  0  0  0  0  0  0  0  0 63
   14.5124  -10.2475    8.8423 H   0  0  0  0  0  0  0  0  0 64
   17.5203  -12.4371    6.6782 H   0  0  0  0  0  0  0  0  0 65
   16.7786  -11.2776    8.7553 H   0  0  0  0  0  0  0  0  0 66
   13.7711  -13.9710    5.5906 H   0  0  0  0  0  0  0  0  0 67
   13.1763  -11.9999    1.8067 H   0  0  0  0  0  0  0  0  0 68
   13.9391  -16.1371    4.4327 H   0  0  0  0  0  0  0  0  0 69
   13.3221  -14.1575    0.6558 H   0  0  0  0  0  0  0  0  0 70
   14.4044  -18.8729   -1.2875 H   0  0  0  0  0  0  0  0  0 71
   16.1224  -20.8458   -1.4957 H   0  0  0  0  0  0  0  0  0 72
   24.4510  -26.1638   -0.9159 H   0  0  0  0  0  0  0  0  0 73
   26.4940  -26.2236    2.8091 H   0  0  0  0  0  0  0  0  0 74
    7.7281   -6.9213    0.7189 H   0  0  0  0  0  0  0  0  0 75
    9.6857   -7.0937    2.2216 H   0  0  0  0  0  0  0  0  0 76
    6.9058   -8.9337   -0.4969 H   0  0  0  0  0  0  0  0  0 77
    8.0759  -11.1115   -0.2022 H   0  0  0  0  0  0  0  0  0 78
   10.0327  -11.2834    1.2745 H   0  0  0  0  0  0  0  0  0 79
   11.4934   -5.7535    3.0375 H   0  0  0  0  0  0  0  0  0 80
   14.4824   -7.1421    5.8155 H   0  0  0  0  0  0  0  0  0 81
   12.0889   -3.4151    3.5779 H   0  0  0  0  0  0  0  0  0 82
   15.0785   -4.8201    6.3376 H   0  0  0  0  0  0  0  0  0 83
   13.8909   -2.9319    5.2273 H   0  0  0  0  0  0  0  0  0 84
  1  2  1  0  0  0
  1  3  2  0  0  0
  2  4  1  0  0  0
  3  5  1  0  0  0
  4  5  2  0  0  0
  3  6  1  0  0  0
  5  7  1  0  0  0
  8  9  1  0  0  0
  8 10  2  0  0  0
  9 11  1  0  0  0
 10 12  1  0  0  0
 11 12  2  0  0  0
 15 16  2  0  0  0
 15 17  1  0  0  0
 16 18  1  0  0  0
 17 19  1  0  0  0
 18 20  1  0  0  0
 19 20  2  0  0  0
 14 18  2  0  0  0
 21 22  1  0  0  0
 21 23  2  0  0  0
 22 24  2  0  0  0
 23 25  1  0  0  0
 24 26  1  0  0  0
 25 26  2  0  0  0
 14 21  1  0  0  0
 27 28  1  0  0  0
 27 29  2  0  0  0
 28 30  2  0  0  0
 29 31  1  0  0  0
 30 32  1  0  0  0
 31 32  2  0  0  0
 14 27  1  0  0  0
 32 33  1  0  0  0
 33 34  3  0  0  0
 35 36  1  0  0  0
 35 37  2  0  0  0
 36 38  1  0  0  0
 37 39  1  0  0  0
 38 39  2  0  0  0
 34 35  1  0  0  0
 40 41  2  0  0  0
 41 42  1  0  0  0
 41 43  1  0  0  0
 13 42  3  0  0  0
 43 44  2  0  0  0
 43 45  1  0  0  0
  8 38  1  0  0  0
 46 47  1  0  0  0
 46 48  2  0  0  0
 47 49  2  0  0  0
 48 50  1  0  0  0
 49 51  1  0  0  0
 50 51  2  0  0  0
 52 53  1  0  0  0
 52 54  2  0  0  0
 53 55  2  0  0  0
 54 56  1  0  0  0
 55 57  1  0  0  0
 56 57  2  0  0  0
 15 49  1  0  0  0
 52 19  1  0  0  0
 10 58  1  0  0  0
 12 59  1  0  0  0
 16 60  1  0  0  0
 20 61  1  0  0  0
 22 62  1  0  0  0
 23 63  1  0  0  0
 24 64  1  0  0  0
 25 65  1  0  0  0
 26 66  1  0  0  0
 28 67  1  0  0  0
 29 68  1  0  0  0
 30 69  1  0  0  0
 31 70  1  0  0  0
 37 71  1  0  0  0
 39 72  1  0  0  0
 40 73  1  0  0  0
 45 74  1  0  0  0
 46 75  1  0  0  0
 47 76  1  0  0  0
 48 77  1  0  0  0
 50 78  1  0  0  0
 51 79  1  0  0  0
 53 80  1  0  0  0
 54 81  1  0  0  0
 55 82  1  0  0  0
 56 83  1  0  0  0
 57 84  1  0  0  0
  1 11  1  0  0  0
 40  4  1  0  0  0
M  END
