D3-2508
  MatStudio         3D                             0

 46 49  0  0  0  0  0  0  0  0999 V2000
   23.4915  -15.1776    4.7893 N   0  0  0  0  0  0  0  0  0  1
   19.2506  -16.6679    3.0960 O   0  0  0  0  0  0  0  0  0  2
   19.7710  -17.9256    2.7259 C   0  0  0  0  0  0  0  0  0  3
   20.3703  -11.8438    1.2442 O   0  0  0  0  0  0  0  0  0  4
   22.5999  -12.3057    2.5649 O   0  0  0  0  0  0  0  0  0  5
   16.9681  -17.5764   -5.0917 O   0  0  0  0  0  0  0  0  0  6
   20.6449  -17.8257    1.6275 O   0  0  0  0  0  0  0  0  0  7
   19.0429  -19.7610    0.4941 O   0  0  0  0  0  0  0  0  0  8
   18.8279  -17.1528   -2.0037 C   0  0  0  0  0  0  0  0  0  9
   18.6226  -18.3917   -1.3979 C   0  0  0  0  0  0  0  0  0 10
   18.2831  -16.8381   -3.2371 C   0  0  0  0  0  0  0  0  0 11
   17.8422  -19.3333   -2.0746 C   0  0  0  0  0  0  0  0  0 12
   17.5205  -17.7947   -3.8848 C   0  0  0  0  0  0  0  0  0 13
   17.2959  -19.0489   -3.3001 C   0  0  0  0  0  0  0  0  0 14
   20.1858  -16.4348   -0.2284 C   0  0  0  0  0  0  0  0  0 15
   20.0182  -17.6208    0.4276 C   0  0  0  0  0  0  0  0  0 16
   19.5923  -16.1943   -1.4182 O   0  0  0  0  0  0  0  0  0 17
   19.2119  -18.6850   -0.1113 C   0  0  0  0  0  0  0  0  0 18
   20.9398  -15.3139    0.2961 C   0  0  0  0  0  0  0  0  0 19
   22.1831  -15.5294    0.8850 C   0  0  0  0  0  0  0  0  0 20
   20.3484  -14.0479    0.3292 C   0  0  0  0  0  0  0  0  0 21
   22.8028  -14.5044    1.5795 C   0  0  0  0  0  0  0  0  0 22
   20.9537  -13.0455    1.0621 C   0  0  0  0  0  0  0  0  0 23
   22.1624  -13.2888    1.7272 C   0  0  0  0  0  0  0  0  0 24
   20.0934  -15.7679    3.6575 C   0  0  0  0  0  0  0  0  0 25
   21.4012  -16.0326    3.9978 C   0  0  0  0  0  0  0  0  0 26
   19.5683  -14.4877    3.8695 C   0  0  0  0  0  0  0  0  0 27
   22.1933  -14.9744    4.4663 C   0  0  0  0  0  0  0  0  0 28
   20.4237  -13.5157    4.3202 C   0  0  0  0  0  0  0  0  0 29
   21.7256  -13.7202    4.5884 N   0  0  0  0  0  0  0  0  0 30
   24.0779  -14.3553    4.9244 H   0  0  0  0  0  0  0  0  0 31
   23.9549  -16.0261    4.4707 H   0  0  0  0  0  0  0  0  0 32
   20.3554  -18.3700    3.5472 H   0  0  0  0  0  0  0  0  0 33
   18.8985  -18.5464    2.4754 H   0  0  0  0  0  0  0  0  0 34
   20.9630  -11.3826    1.8935 H   0  0  0  0  0  0  0  0  0 35
   22.4600  -12.6856    3.5186 H   0  0  0  0  0  0  0  0  0 36
   17.1957  -16.6762   -5.4040 H   0  0  0  0  0  0  0  0  0 37
   18.4662  -15.8565   -3.6841 H   0  0  0  0  0  0  0  0  0 38
   17.6886  -20.3025   -1.5905 H   0  0  0  0  0  0  0  0  0 39
   16.6871  -19.7789   -3.8397 H   0  0  0  0  0  0  0  0  0 40
   22.6437  -16.5180    0.8323 H   0  0  0  0  0  0  0  0  0 41
   19.3670  -13.8744   -0.1232 H   0  0  0  0  0  0  0  0  0 42
   23.7597  -14.6652    2.0851 H   0  0  0  0  0  0  0  0  0 43
   21.8646  -17.0057    3.8176 H   0  0  0  0  0  0  0  0  0 44
   18.5281  -14.2655    3.6229 H   0  0  0  0  0  0  0  0  0 45
   20.0764  -12.4818    4.4300 H   0  0  0  0  0  0  0  0  0 46
  9 11  2  0  0  0
 10 12  2  0  0  0
 11 13  1  0  0  0
 12 14  1  0  0  0
 13 14  2  0  0  0
 15 16  2  0  0  0
 15 17  1  0  0  0
 16 18  1  0  0  0
 17  9  1  0  0  0
 18 10  1  0  0  0
  9 10  1  0  0  0
 19 20  1  0  0  0
 19 21  2  0  0  0
 20 22  2  0  0  0
 21 23  1  0  0  0
 22 24  1  0  0  0
 23 24  2  0  0  0
 15 19  1  0  0  0
  8 18  2  0  0  0
  7 16  1  0  0  0
  6 13  1  0  0  0
  5 24  1  0  0  0
  4 23  1  0  0  0
  3  7  1  0  0  0
  2  3  1  0  0  0
 25 26  1  0  0  0
 25 27  2  0  0  0
 26 28  2  0  0  0
 27 29  1  0  0  0
 28 30  1  0  0  0
 29 30  2  0  0  0
  2 25  1  0  0  0
  1 28  1  0  0  0
  1 31  1  0  0  0
  1 32  1  0  0  0
  3 33  1  0  0  0
  3 34  1  0  0  0
  4 35  1  0  0  0
  5 36  1  0  0  0
  6 37  1  0  0  0
 11 38  1  0  0  0
 12 39  1  0  0  0
 14 40  1  0  0  0
 20 41  1  0  0  0
 21 42  1  0  0  0
 22 43  1  0  0  0
 26 44  1  0  0  0
 27 45  1  0  0  0
 29 46  1  0  0  0
M  END
