DPAA-86
  MatStudio         3D                             0

 48 51  0  0  0  0  0  0  0  0999 V2000
   -7.4492    0.9457   -2.1632 C   0  0  0  0  0  0  0  0  0  1
   -6.9011   -0.1752   -1.5673 C   0  0  0  0  0  0  0  0  0  2
   -5.6593   -0.1197   -0.9272 C   0  0  0  0  0  0  0  0  0  3
   -4.9525    1.0880   -0.8822 C   0  0  0  0  0  0  0  0  0  4
   -5.5157    2.2061   -1.4841 C   0  0  0  0  0  0  0  0  0  5
   -6.7443    2.1346   -2.1131 C   0  0  0  0  0  0  0  0  0  6
   -3.6066    1.2250   -0.2101 C   0  0  0  0  0  0  0  0  0  7
   -3.1566   -0.0877    0.3890 C   0  0  0  0  0  0  0  0  0  8
   -3.9202   -1.2622    0.3026 C   0  0  0  0  0  0  0  0  0  9
   -5.1384   -1.2665   -0.3387 N   0  0  0  0  0  0  0  0  0 10
   -3.4354   -2.4487    0.8802 C   0  0  0  0  0  0  0  0  0 11
   -2.2235   -2.4777    1.5247 C   0  0  0  0  0  0  0  0  0 12
   -1.4391   -1.3208    1.6251 C   0  0  0  0  0  0  0  0  0 13
   -1.9411   -0.1505    1.0451 C   0  0  0  0  0  0  0  0  0 14
   -7.4677    3.6916   -2.9252 Br  0  0  0  0  0  0  0  0  0 15
   -2.5782    1.6809   -1.2424 C   0  0  0  0  0  0  0  0  0 16
   -3.7045    2.2740    0.8953 C   0  0  0  0  0  0  0  0  0 17
   -5.8729   -2.4822   -0.4336 C   0  0  0  0  0  0  0  0  0 18
   -0.1657   -1.2905    2.2790 C   0  0  0  0  0  0  0  0  0 19
    0.4642   -2.3293    2.8713 C   0  0  0  0  0  0  0  0  0 20
    1.7520   -2.2168    3.5059 C   0  0  0  0  0  0  0  0  0 21
    2.3411   -3.1533    4.0450 O   0  0  0  0  0  0  0  0  0 22
    2.2943   -0.9815    3.4683 O   0  0  0  0  0  0  0  0  0 23
   -5.6762   -3.3152   -1.5258 C   0  0  0  0  0  0  0  0  0 24
   -6.3922   -4.5004   -1.6196 C   0  0  0  0  0  0  0  0  0 25
   -7.2986   -4.8454   -0.6250 C   0  0  0  0  0  0  0  0  0 26
   -7.4906   -4.0062    0.4652 C   0  0  0  0  0  0  0  0  0 27
   -6.7772   -2.8193    0.5633 C   0  0  0  0  0  0  0  0  0 28
   -8.4201    0.8880   -2.6624 H   0  0  0  0  0  0  0  0  0 29
   -7.4488   -1.1214   -1.5973 H   0  0  0  0  0  0  0  0  0 30
   -4.9770    3.1590   -1.4609 H   0  0  0  0  0  0  0  0  0 31
   -4.0383   -3.3587    0.8105 H   0  0  0  0  0  0  0  0  0 32
   -1.8766   -3.4193    1.9629 H   0  0  0  0  0  0  0  0  0 33
   -1.3312    0.7591    1.1158 H   0  0  0  0  0  0  0  0  0 34
   -2.8731    2.6479   -1.6835 H   0  0  0  0  0  0  0  0  0 35
   -2.4803    0.9418   -2.0550 H   0  0  0  0  0  0  0  0  0 36
   -1.5900    1.8120   -0.7703 H   0  0  0  0  0  0  0  0  0 37
   -2.7257    2.4069    1.3862 H   0  0  0  0  0  0  0  0  0 38
   -4.4409    1.9760    1.6601 H   0  0  0  0  0  0  0  0  0 39
   -4.0086    3.2488    0.4778 H   0  0  0  0  0  0  0  0  0 40
    0.3434   -0.3170    2.2904 H   0  0  0  0  0  0  0  0  0 41
    0.0288   -3.3329    2.9049 H   0  0  0  0  0  0  0  0  0 42
    3.1615   -1.0507    3.9287 H   0  0  0  0  0  0  0  0  0 43
   -4.9573   -3.0257   -2.2994 H   0  0  0  0  0  0  0  0  0 44
   -6.2395   -5.1616   -2.4781 H   0  0  0  0  0  0  0  0  0 45
   -7.8621   -5.7807   -0.6994 H   0  0  0  0  0  0  0  0  0 46
   -8.2033   -4.2773    1.2501 H   0  0  0  0  0  0  0  0  0 47
   -6.9143   -2.1440    1.4143 H   0  0  0  0  0  0  0  0  0 48
  3  2  1  0  0  0
  4  3  2  0  0  0
  5  4  1  0  0  0
  6  5  2  0  0  0
  1  2  2  0  0  0
  1  6  1  0  0  0
  8  7  1  0  0  0
  9  8  1  0  0  0
 10  9  1  0  0  0
  4  7  1  0  0  0
  3 10  1  0  0  0
 12 11  1  0  0  0
 13 12  2  0  0  0
 14 13  1  0  0  0
  9 11  2  0  0  0
  8 14  2  0  0  0
  6 15  1  0  0  0
  7 16  1  0  0  0
  7 17  1  0  0  0
 10 18  1  0  0  0
 13 19  1  0  0  0
 19 20  2  0  0  0
 20 21  1  0  0  0
 21 22  2  0  0  0
 21 23  1  0  0  0
 25 24  2  0  0  0
 26 25  1  0  0  0
 27 26  2  0  0  0
 28 27  1  0  0  0
 18 24  1  0  0  0
 18 28  2  0  0  0
  1 29  1  0  0  0
  2 30  1  0  0  0
  5 31  1  0  0  0
 11 32  1  0  0  0
 12 33  1  0  0  0
 14 34  1  0  0  0
 16 35  1  0  0  0
 16 36  1  0  0  0
 16 37  1  0  0  0
 17 38  1  0  0  0
 17 39  1  0  0  0
 17 40  1  0  0  0
 19 41  1  0  0  0
 20 42  1  0  0  0
 23 43  1  0  0  0
 24 44  1  0  0  0
 25 45  1  0  0  0
 26 46  1  0  0  0
 27 47  1  0  0  0
 28 48  1  0  0  0
M  END
