DPACA-122
  MatStudio         3D                             0

 49 52  0  0  0  0  0  0  0  0999 V2000
   -7.0264    2.2567   -0.9063 C   0  0  0  0  0  0  0  0  0  1
   -6.7693    0.9378   -0.5801 C   0  0  0  0  0  0  0  0  0  2
   -5.4622    0.4894   -0.3748 C   0  0  0  0  0  0  0  0  0  3
   -4.3888    1.3781   -0.4957 C   0  0  0  0  0  0  0  0  0  4
   -4.6612    2.6998   -0.8241 C   0  0  0  0  0  0  0  0  0  5
   -5.9598    3.1291   -1.0259 C   0  0  0  0  0  0  0  0  0  6
   -2.9527    0.9588   -0.2949 C   0  0  0  0  0  0  0  0  0  7
   -2.8550   -0.5033    0.0736 C   0  0  0  0  0  0  0  0  0  8
   -3.9836   -1.3388    0.1758 C   0  0  0  0  0  0  0  0  0  9
   -5.2407   -0.8478   -0.0489 N   0  0  0  0  0  0  0  0  0 10
   -3.8177   -2.6965    0.5115 C   0  0  0  0  0  0  0  0  0 11
   -2.5753   -3.2224    0.7466 C   0  0  0  0  0  0  0  0  0 12
   -1.4290   -2.4114    0.6554 C   0  0  0  0  0  0  0  0  0 13
   -1.6196   -1.0592    0.3172 C   0  0  0  0  0  0  0  0  0 14
   -6.2788    4.9455   -1.4721 Br  0  0  0  0  0  0  0  0  0 15
   -2.1806    1.1964   -1.5910 C   0  0  0  0  0  0  0  0  0 16
   -2.3357    1.7989    0.8201 C   0  0  0  0  0  0  0  0  0 17
   -6.3652   -1.7157    0.0702 C   0  0  0  0  0  0  0  0  0 18
   -0.1031   -2.8502    0.8762 C   0  0  0  0  0  0  0  0  0 19
    0.4036   -4.0800    1.2082 C   0  0  0  0  0  0  0  0  0 20
    1.8519   -4.1941    1.3768 C   0  0  0  0  0  0  0  0  0 21
    2.6420   -3.2709    1.2428 O   0  0  0  0  0  0  0  0  0 22
    2.2337   -5.4380    1.6986 O   0  0  0  0  0  0  0  0  0 23
   -6.8194   -2.4040   -1.0451 C   0  0  0  0  0  0  0  0  0 24
   -7.9161   -3.2463   -0.9243 C   0  0  0  0  0  0  0  0  0 25
   -8.5505   -3.3921    0.3028 C   0  0  0  0  0  0  0  0  0 26
   -8.0896   -2.6964    1.4133 C   0  0  0  0  0  0  0  0  0 27
   -6.9935   -1.8526    1.2990 C   0  0  0  0  0  0  0  0  0 28
   -0.3678   -5.2371    1.4007 C   0  0  0  0  0  0  0  0  0 29
   -1.0074   -6.2020    1.5573 N   0  0  0  0  0  0  0  0  0 30
   -8.0526    2.5980   -1.0649 H   0  0  0  0  0  0  0  0  0 31
   -7.6022    0.2359   -0.4815 H   0  0  0  0  0  0  0  0  0 32
   -3.8367    3.4126   -0.9269 H   0  0  0  0  0  0  0  0  0 33
   -4.7018   -3.3361    0.5830 H   0  0  0  0  0  0  0  0  0 34
   -2.4887   -4.2815    1.0047 H   0  0  0  0  0  0  0  0  0 35
   -0.7288   -0.4230    0.2453 H   0  0  0  0  0  0  0  0  0 36
   -2.2114    2.2632   -1.8699 H   0  0  0  0  0  0  0  0  0 37
   -2.6053    0.6055   -2.4195 H   0  0  0  0  0  0  0  0  0 38
   -1.1234    0.9086   -1.4638 H   0  0  0  0  0  0  0  0  0 39
   -1.2770    1.5262    0.9653 H   0  0  0  0  0  0  0  0  0 40
   -2.8690    1.6460    1.7730 H   0  0  0  0  0  0  0  0  0 41
   -2.3737    2.8713    0.5663 H   0  0  0  0  0  0  0  0  0 42
    0.6810   -2.0864    0.7703 H   0  0  0  0  0  0  0  0  0 43
    3.2133   -5.4181    1.8055 H   0  0  0  0  0  0  0  0  0 44
   -6.3060   -2.2761   -2.0037 H   0  0  0  0  0  0  0  0  0 45
   -8.2769   -3.7948   -1.7997 H   0  0  0  0  0  0  0  0  0 46
   -9.4143   -4.0577    0.3948 H   0  0  0  0  0  0  0  0  0 47
   -8.5872   -2.8114    2.3811 H   0  0  0  0  0  0  0  0  0 48
   -6.6159   -1.2947    2.1623 H   0  0  0  0  0  0  0  0  0 49
  3  2  1  0  0  0
  4  3  2  0  0  0
  5  4  1  0  0  0
  6  5  2  0  0  0
  1  2  2  0  0  0
  1  6  1  0  0  0
  8  7  1  0  0  0
  9  8  1  0  0  0
 10  9  1  0  0  0
  4  7  1  0  0  0
  3 10  1  0  0  0
 12 11  1  0  0  0
 13 12  2  0  0  0
 14 13  1  0  0  0
  9 11  2  0  0  0
  8 14  2  0  0  0
  6 15  1  0  0  0
  7 16  1  0  0  0
  7 17  1  0  0  0
 10 18  1  0  0  0
 13 19  1  0  0  0
 19 20  2  0  0  0
 20 21  1  0  0  0
 21 22  2  0  0  0
 21 23  1  0  0  0
 25 24  2  0  0  0
 26 25  1  0  0  0
 27 26  2  0  0  0
 28 27  1  0  0  0
 18 24  1  0  0  0
 18 28  2  0  0  0
 20 29  1  0  0  0
 29 30  3  0  0  0
  1 31  1  0  0  0
  2 32  1  0  0  0
  5 33  1  0  0  0
 11 34  1  0  0  0
 12 35  1  0  0  0
 14 36  1  0  0  0
 16 37  1  0  0  0
 16 38  1  0  0  0
 16 39  1  0  0  0
 17 40  1  0  0  0
 17 41  1  0  0  0
 17 42  1  0  0  0
 19 43  1  0  0  0
 23 44  1  0  0  0
 24 45  1  0  0  0
 25 46  1  0  0  0
 26 47  1  0  0  0
 27 48  1  0  0  0
 28 49  1  0  0  0
M  END
