Phenothiazine3-667
  MatStudio         3D                             0

 36 38  0  0  0  0  0  0  0  0999 V2000
   -4.9638    1.1647    2.5073 C   0  0  0  0  0  0  0  0  0  1
   -3.8665    0.3263    2.2929 C   0  0  0  0  0  0  0  0  0  2
   -2.7395    0.7835    1.6278 C   0  0  0  0  0  0  0  0  0  3
   -2.7189    2.0968    1.1762 C   0  0  0  0  0  0  0  0  0  4
   -3.8333    2.9299    1.4089 C   0  0  0  0  0  0  0  0  0  5
   -4.9664    2.4799    2.0672 C   0  0  0  0  0  0  0  0  0  6
   -3.5751    4.1851    0.8904 N   0  0  0  0  0  0  0  0  0  7
   -2.3482    4.1799    0.3065 C   0  0  0  0  0  0  0  0  0  8
   -1.7615    2.8961    0.4657 C   0  0  0  0  0  0  0  0  0  9
   -0.5034    2.6625   -0.0418 C   0  0  0  0  0  0  0  0  0 10
    0.1840    3.6902   -0.7130 C   0  0  0  0  0  0  0  0  0 11
   -0.4333    4.9571   -0.8580 C   0  0  0  0  0  0  0  0  0 12
   -1.6885    5.2115   -0.3608 C   0  0  0  0  0  0  0  0  0 13
   -4.5118    5.2791    0.8786 C   0  0  0  0  0  0  0  0  0 14
   -5.4678    5.1989   -0.2849 C   0  0  0  0  0  0  0  0  0 15
    1.4736    3.3749   -1.2079 C   0  0  0  0  0  0  0  0  0 16
    2.3958    4.1207   -1.8893 C   0  0  0  0  0  0  0  0  0 17
    2.2294    5.4656   -2.2618 C   0  0  0  0  0  0  0  0  0 18
    3.6534    3.4684   -2.2600 C   0  0  0  0  0  0  0  0  0 19
    3.9346    2.3070   -2.0053 O   0  0  0  0  0  0  0  0  0 20
    4.4774    4.2915   -2.9216 O   0  0  0  0  0  0  0  0  0 21
    2.0937    6.5841   -2.5687 N   0  0  0  0  0  0  0  0  0 22
   -5.8417    0.7775    3.0323 H   0  0  0  0  0  0  0  0  0 23
   -3.9014   -0.7053    2.6535 H   0  0  0  0  0  0  0  0  0 24
   -1.8839    0.1220    1.4593 H   0  0  0  0  0  0  0  0  0 25
   -5.8279    3.1334    2.2348 H   0  0  0  0  0  0  0  0  0 26
   -0.0245    1.6832    0.0661 H   0  0  0  0  0  0  0  0  0 27
    0.0966    5.7563   -1.3818 H   0  0  0  0  0  0  0  0  0 28
   -2.1525    6.1938   -0.4884 H   0  0  0  0  0  0  0  0  0 29
   -3.9324    6.2163    0.8570 H   0  0  0  0  0  0  0  0  0 30
   -5.0515    5.2670    1.8406 H   0  0  0  0  0  0  0  0  0 31
   -6.0556    4.2678   -0.2482 H   0  0  0  0  0  0  0  0  0 32
   -4.9220    5.2261   -1.2415 H   0  0  0  0  0  0  0  0  0 33
   -6.1667    6.0490   -0.2614 H   0  0  0  0  0  0  0  0  0 34
    1.8189    2.3476   -1.0249 H   0  0  0  0  0  0  0  0  0 35
    5.2897    3.7776   -3.1372 H   0  0  0  0  0  0  0  0  0 36
  3  2  1  0  0  0
  4  3  2  0  0  0
  5  4  1  0  0  0
  6  5  2  0  0  0
  1  2  2  0  0  0
  1  6  1  0  0  0
  8  7  1  0  0  0
  9  8  2  0  0  0
  5  7  1  0  0  0
 11 10  2  0  0  0
 12 11  1  0  0  0
 13 12  2  0  0  0
  9 10  1  0  0  0
  8 13  1  0  0  0
  7 14  1  0  0  0
 14 15  1  0  0  0
 11 16  1  0  0  0
 16 17  2  0  0  0
 17 18  1  0  0  0
 17 19  1  0  0  0
 19 20  2  0  0  0
 19 21  1  0  0  0
 18 22  3  0  0  0
  1 23  1  0  0  0
  2 24  1  0  0  0
  3 25  1  0  0  0
  6 26  1  0  0  0
 10 27  1  0  0  0
 12 28  1  0  0  0
 13 29  1  0  0  0
 14 30  1  0  0  0
 14 31  1  0  0  0
 15 32  1  0  0  0
 15 33  1  0  0  0
 15 34  1  0  0  0
 16 35  1  0  0  0
 21 36  1  0  0  0
  4  9  1  0  0  0
M  END
