Phenothiazine4-720
  MatStudio         3D                             0

 42 44  0  0  0  0  0  0  0  0999 V2000
   -6.1791    0.8543   -0.1230 C   0  0  0  0  0  0  0  0  0  1
   -5.5788   -0.3410   -0.4744 C   0  0  0  0  0  0  0  0  0  2
   -4.1972   -0.3972   -0.4586 C   0  0  0  0  0  0  0  0  0  3
   -3.3894    0.6881   -0.1316 C   0  0  0  0  0  0  0  0  0  4
   -3.9981    1.9159    0.2138 C   0  0  0  0  0  0  0  0  0  5
   -5.4045    1.9500    0.2112 C   0  0  0  0  0  0  0  0  0  6
   -3.3174    3.1161    0.5194 N   0  0  0  0  0  0  0  0  0  7
   -1.9552    3.3681    0.5640 C   0  0  0  0  0  0  0  0  0  8
   -0.9702    2.4293    0.9487 C   0  0  0  0  0  0  0  0  0  9
    0.3382    2.8415    1.0657 C   0  0  0  0  0  0  0  0  0 10
    0.7694    4.1543    0.8159 C   0  0  0  0  0  0  0  0  0 11
   -0.2095    5.0704    0.3983 C   0  0  0  0  0  0  0  0  0 12
   -1.5176    4.6835    0.2798 C   0  0  0  0  0  0  0  0  0 13
   -4.1630    4.2920    0.7437 C   0  0  0  0  0  0  0  0  0 14
   -4.7248    4.9045   -0.5132 C   0  0  0  0  0  0  0  0  0 15
    2.1419    4.4432    0.9862 C   0  0  0  0  0  0  0  0  0 16
    2.8515    5.6024    0.8138 C   0  0  0  0  0  0  0  0  0 17
    2.2937    6.8259    0.4076 C   0  0  0  0  0  0  0  0  0 18
    4.2902    5.5633    1.0708 C   0  0  0  0  0  0  0  0  0 19
    4.9025    4.5736    1.4451 O   0  0  0  0  0  0  0  0  0 20
    4.8808    6.7477    0.8571 O   0  0  0  0  0  0  0  0  0 21
    1.8323    7.8477    0.0799 N   0  0  0  0  0  0  0  0  0 22
   -7.2682    0.9527   -0.1054 H   0  0  0  0  0  0  0  0  0 23
   -6.1711   -1.2186   -0.7462 H   0  0  0  0  0  0  0  0  0 24
   -3.6904   -1.3367   -0.7049 H   0  0  0  0  0  0  0  0  0 25
   -5.9371    2.8629    0.4702 H   0  0  0  0  0  0  0  0  0 26
    1.0819    2.1009    1.3832 H   0  0  0  0  0  0  0  0  0 27
    0.0603    6.0987    0.1443 H   0  0  0  0  0  0  0  0  0 28
   -2.2321    5.4219   -0.0866 H   0  0  0  0  0  0  0  0  0 29
   -3.5608    5.0220    1.3014 H   0  0  0  0  0  0  0  0  0 30
   -4.9648    4.0008    1.4400 H   0  0  0  0  0  0  0  0  0 31
   -5.3154    4.1755   -1.0898 H   0  0  0  0  0  0  0  0  0 32
   -3.9245    5.2780   -1.1725 H   0  0  0  0  0  0  0  0  0 33
   -5.3809    5.7512   -0.2569 H   0  0  0  0  0  0  0  0  0 34
    2.7738    3.6058    1.3139 H   0  0  0  0  0  0  0  0  0 35
    5.8382    6.6318    1.0576 H   0  0  0  0  0  0  0  0  0 36
   -1.9262    0.4341   -0.0889 C   0  0  0  0  0  0  0  0  0 37
   -1.2953    1.0046    1.1704 C   0  0  0  0  0  0  0  0  0 38
   -1.4146    0.8644   -0.9702 H   0  0  0  0  0  0  0  0  0 39
   -1.7676   -0.6551   -0.1420 H   0  0  0  0  0  0  0  0  0 40
   -0.3720    0.4625    1.4290 H   0  0  0  0  0  0  0  0  0 41
   -1.9949    0.8764    2.0170 H   0  0  0  0  0  0  0  0  0 42
  3  2  1  0  0  0
  4  3  2  0  0  0
  5  4  1  0  0  0
  6  5  2  0  0  0
  1  2  2  0  0  0
  1  6  1  0  0  0
  8  7  1  0  0  0
  9  8  2  0  0  0
  5  7  1  0  0  0
 11 10  2  0  0  0
 12 11  1  0  0  0
 13 12  2  0  0  0
  9 10  1  0  0  0
  8 13  1  0  0  0
  7 14  1  0  0  0
 14 15  1  0  0  0
 11 16  1  0  0  0
 16 17  2  0  0  0
 17 18  1  0  0  0
 17 19  1  0  0  0
 19 20  2  0  0  0
 19 21  1  0  0  0
 18 22  3  0  0  0
  1 23  1  0  0  0
  2 24  1  0  0  0
  3 25  1  0  0  0
  6 26  1  0  0  0
 10 27  1  0  0  0
 12 28  1  0  0  0
 13 29  1  0  0  0
 14 30  1  0  0  0
 14 31  1  0  0  0
 15 32  1  0  0  0
 15 33  1  0  0  0
 15 34  1  0  0  0
 16 35  1  0  0  0
 21 36  1  0  0  0
  4 37  1  0  0  0
 37 38  1  0  0  0
  9 38  1  0  0  0
 37 39  1  0  0  0
 37 40  1  0  0  0
 38 41  1  0  0  0
 38 42  1  0  0  0
M  END
