Quercitin-96
  MatStudio         3D                             0

 52 55  0  0  0  0  0  0  0  0999 V2000
    3.2992   -1.5654   -2.8581 C   0  0  0  0  0  0  0  0  0  1
    1.1738    1.5210   -3.4202 C   0  0  0  0  0  0  0  0  0  2
   -1.3558   -1.4771   -7.8775 O   0  0  0  0  0  0  0  0  0  3
    0.1780    0.7797   -7.4507 O   0  0  0  0  0  0  0  0  0  4
    4.3185    0.4608   -1.9250 C   0  0  0  0  0  0  0  0  0  5
    4.3664   -0.9105   -2.1876 C   0  0  0  0  0  0  0  0  0  6
    2.2071   -0.7244   -3.2348 C   0  0  0  0  0  0  0  0  0  7
    1.3055   -1.5909   -5.2430 C   0  0  0  0  0  0  0  0  0  8
    2.2184    0.6074   -2.9644 C   0  0  0  0  0  0  0  0  0  9
    3.2319    1.1922   -2.2955 O   0  0  0  0  0  0  0  0  0 10
    5.3508    1.1283   -1.3032 C   0  0  0  0  0  0  0  0  0 11
    5.5169   -1.6396   -1.7957 C   0  0  0  0  0  0  0  0  0 12
    6.5629   -0.9859   -1.1752 C   0  0  0  0  0  0  0  0  0 13
   -0.0985   -1.5968   -5.8202 C   0  0  0  0  0  0  0  0  0 14
    6.4713    0.3854   -0.9424 C   0  0  0  0  0  0  0  0  0 15
    2.0998   -0.5808   -5.7819 O   0  0  0  0  0  0  0  0  0 16
   -0.0603   -1.5836   -7.3394 C   0  0  0  0  0  0  0  0  0 17
    2.1996   -0.5986   -7.2052 C   0  0  0  0  0  0  0  0  0 18
    0.8215   -0.4460   -7.8118 C   0  0  0  0  0  0  0  0  0 19
    5.5551   -2.9455   -2.0430 O   0  0  0  0  0  0  0  0  0 20
   -0.7724   -0.4105   -5.3978 O   0  0  0  0  0  0  0  0  0 21
    7.5289    0.9667   -0.3498 O   0  0  0  0  0  0  0  0  0 22
    3.1457    0.4911   -7.5980 C   0  0  0  0  0  0  0  0  0 23
   -1.5832   -0.5220   -7.8383 H   0  0  0  0  0  0  0  0  0 24
   -0.1978    0.5856   -6.5256 H   0  0  0  0  0  0  0  0  0 25
    3.3254   -2.8062   -3.1199 O   0  0  0  0  0  0  0  0  0 26
    5.2903    2.2036   -1.1151 H   0  0  0  0  0  0  0  0  0 27
    7.4615   -1.5308   -0.8769 H   0  0  0  0  0  0  0  0  0 28
    4.6438   -3.1405   -2.5310 H   0  0  0  0  0  0  0  0  0 29
    7.3559    1.9243   -0.2369 H   0  0  0  0  0  0  0  0  0 30
    0.0612    1.8218   -2.6400 C   0  0  0  0  0  0  0  0  0 31
   -0.9671    2.5987   -3.1581 C   0  0  0  0  0  0  0  0  0 32
   -0.8893    3.0573   -4.4639 C   0  0  0  0  0  0  0  0  0 33
    0.2335    2.7629   -5.2457 C   0  0  0  0  0  0  0  0  0 34
    1.2667    2.0191   -4.7199 C   0  0  0  0  0  0  0  0  0 35
    0.1963    3.1980   -6.5365 O   0  0  0  0  0  0  0  0  0 36
   -1.8886    3.7535   -5.0346 O   0  0  0  0  0  0  0  0  0 37
   -0.0137    1.4256   -1.6238 H   0  0  0  0  0  0  0  0  0 38
   -1.8569    2.8235   -2.5640 H   0  0  0  0  0  0  0  0  0 39
    2.1300    1.7725   -5.3421 H   0  0  0  0  0  0  0  0  0 40
    0.3922    2.3941   -7.1198 H   0  0  0  0  0  0  0  0  0 41
   -1.6117    3.8694   -5.9793 H   0  0  0  0  0  0  0  0  0 42
    1.1236   -1.2650   -3.8685 O   0  0  0  0  0  0  0  0  0 43
   -0.4061   -0.1961   -4.5008 H   0  0  0  0  0  0  0  0  0 44
    2.7193    1.4790   -7.3622 H   0  0  0  0  0  0  0  0  0 45
    3.3367    0.4499   -8.6806 H   0  0  0  0  0  0  0  0  0 46
    4.1017    0.3803   -7.0659 H   0  0  0  0  0  0  0  0  0 47
    1.7994   -2.5808   -5.3393 H   0  0  0  0  0  0  0  0  0 48
   -0.6400   -2.4901   -5.4584 H   0  0  0  0  0  0  0  0  0 49
    0.3732   -2.5372   -7.6880 H   0  0  0  0  0  0  0  0  0 50
    2.5918   -1.5870   -7.5312 H   0  0  0  0  0  0  0  0  0 51
    0.9086   -0.4733   -8.9123 H   0  0  0  0  0  0  0  0  0 52
  1  6  1  0  0  0
  1  7  1  0  0  0
  2  9  1  0  0  0
  3 17  1  0  0  0
  3 24  1  0  0  0
  4 19  1  0  0  0
  4 25  1  0  0  0
  5  6  2  0  0  0
  5 10  1  0  0  0
  5 11  1  0  0  0
  6 12  1  0  0  0
  7  9  2  0  0  0
  8 14  1  0  0  0
  8 16  1  0  0  0
  9 10  1  0  0  0
 11 15  2  0  0  0
 12 13  2  0  0  0
 12 20  1  0  0  0
 13 15  1  0  0  0
 14 17  1  0  0  0
 14 21  1  0  0  0
 15 22  1  0  0  0
 16 18  1  0  0  0
 17 19  1  0  0  0
 18 19  1  0  0  0
 18 23  1  0  0  0
  1 26  2  0  0  0
 11 27  1  0  0  0
 13 28  1  0  0  0
 20 29  1  0  0  0
 22 30  1  0  0  0
 32 31  2  0  0  0
 33 32  1  0  0  0
 34 33  2  0  0  0
 35 34  1  0  0  0
  2 31  1  0  0  0
  2 35  2  0  0  0
 34 36  1  0  0  0
 33 37  1  0  0  0
 31 38  1  0  0  0
 32 39  1  0  0  0
 35 40  1  0  0  0
 36 41  1  0  0  0
 37 42  1  0  0  0
  7 43  1  0  0  0
 43  8  1  0  0  0
 21 44  1  0  0  0
 23 45  1  0  0  0
 23 46  1  0  0  0
 23 47  1  0  0  0
  8 48  1  0  0  0
 14 49  1  0  0  0
 17 50  1  0  0  0
 18 51  1  0  0  0
 19 52  1  0  0  0
M  END
