Rutin-1137
  MatStudio         3D                             0

 94 98  0  0  0  0  0  0  0  0999 V2000
   10.8815   -1.8729   -0.6699 O   0  0  0  0  0  0  0  0  0  1
    9.3354   -4.0832   -2.2257 O   0  0  0  0  0  0  0  0  0  2
    8.2696   -5.5286   -0.7331 O   0  0  0  0  0  0  0  0  0  3
   13.1434   -3.5458   -2.9578 O   0  0  0  0  0  0  0  0  0  4
   14.6358   -1.2619   -2.2517 O   0  0  0  0  0  0  0  0  0  5
   10.9254    0.0492    0.4303 O   0  0  0  0  0  0  0  0  0  6
   13.5309   -0.6604    0.0513 O   0  0  0  0  0  0  0  0  0  7
    6.8780   -2.5231   -2.1742 O   0  0  0  0  0  0  0  0  0  8
    5.8243   -4.0546   -0.0143 O   0  0  0  0  0  0  0  0  0  9
    5.3298   -6.4903   -0.2065 O   0  0  0  0  0  0  0  0  0 10
    9.4877    3.3537    0.2032 O   0  0  0  0  0  0  0  0  0 11
   13.0957    1.6829    1.0063 O   0  0  0  0  0  0  0  0  0 12
   14.1080    3.9588    1.0912 O   0  0  0  0  0  0  0  0  0 13
   11.2385    7.6578    0.2010 O   0  0  0  0  0  0  0  0  0 14
    4.7523    2.4120    0.5671 O   0  0  0  0  0  0  0  0  0 15
    4.4227   -0.1084    0.4463 O   0  0  0  0  0  0  0  0  0 16
   12.8806   10.8183    0.1558 O   0  0  0  0  0  0  0  0  0 17
    5.1600    5.7874   -0.7734 O   0  0  0  0  0  0  0  0  0 18
    4.5440   -1.2416   -2.1501 O   0  0  0  0  0  0  0  0  0 19
   11.2405   -2.6638   -1.8036 C   0  0  0  0  0  0  0  0  0 20
   12.7476   -2.6955   -1.9059 C   0  0  0  0  0  0  0  0  0 21
   13.2279   -1.2938   -2.1743 C   0  0  0  0  0  0  0  0  0 22
   12.7573   -0.3666   -1.0830 C   0  0  0  0  0  0  0  0  0 23
    7.0336   -3.9217   -2.0589 C   0  0  0  0  0  0  0  0  0 24
    8.2993   -4.2435   -1.2972 C   0  0  0  0  0  0  0  0  0 25
    5.8497   -4.5015   -1.3487 C   0  0  0  0  0  0  0  0  0 26
    5.9850   -6.0322   -1.3774 C   0  0  0  0  0  0  0  0  0 27
   11.2700   -0.5369   -0.8186 C   0  0  0  0  0  0  0  0  0 28
   10.6429   -4.0309   -1.6709 C   0  0  0  0  0  0  0  0  0 29
    7.4514   -6.4415   -1.4643 C   0  0  0  0  0  0  0  0  0 30
    7.7097   -7.8172   -0.9337 C   0  0  0  0  0  0  0  0  0 31
   10.8118    1.4088    0.4017 C   0  0  0  0  0  0  0  0  0 32
    9.5764    2.0061    0.2457 C   0  0  0  0  0  0  0  0  0 33
   11.9626    2.1960    0.6912 C   0  0  0  0  0  0  0  0  0 34
   11.8149    3.6056    0.6286 C   0  0  0  0  0  0  0  0  0 35
    8.2791    1.3821    0.2046 C   0  0  0  0  0  0  0  0  0 36
   10.5674    4.1609    0.3423 C   0  0  0  0  0  0  0  0  0 37
   12.9144    4.4749    0.8072 C   0  0  0  0  0  0  0  0  0 38
   10.3721    5.5134    0.2067 C   0  0  0  0  0  0  0  0  0 39
    7.1522    2.2136    0.3399 C   0  0  0  0  0  0  0  0  0 40
    8.0780    0.0026    0.0939 C   0  0  0  0  0  0  0  0  0 41
   12.7442    5.8431    0.6686 C   0  0  0  0  0  0  0  0  0 42
   11.4805    6.3463    0.3624 C   0  0  0  0  0  0  0  0  0 43
    5.8829    1.6897    0.4010 C   0  0  0  0  0  0  0  0  0 44
    6.8010   -0.5267    0.1477 C   0  0  0  0  0  0  0  0  0 45
    5.6919    0.2926    0.3166 C   0  0  0  0  0  0  0  0  0 46
   12.3313    8.5557    0.3169 C   0  0  0  0  0  0  0  0  0 47
    4.8735    3.8266    0.5822 C   0  0  0  0  0  0  0  0  0 48
    4.1058   -1.4825    0.2357 C   0  0  0  0  0  0  0  0  0 49
   11.7914    9.9274    0.0397 C   0  0  0  0  0  0  0  0  0 50
    5.0457    4.3810   -0.8101 C   0  0  0  0  0  0  0  0  0 51
    3.6403   -1.6994   -1.1781 C   0  0  0  0  0  0  0  0  0 52
   10.8302   -2.1997   -2.7282 H   0  0  0  0  0  0  0  0  0 53
   13.1576   -3.0393   -0.9324 H   0  0  0  0  0  0  0  0  0 54
   12.8232   -0.9791   -3.1547 H   0  0  0  0  0  0  0  0  0 55
   12.9217    0.6836   -1.4044 H   0  0  0  0  0  0  0  0  0 56
    7.1020   -4.3815   -3.0657 H   0  0  0  0  0  0  0  0  0 57
    8.4266   -3.5410   -0.4515 H   0  0  0  0  0  0  0  0  0 58
    4.9215   -4.1956   -1.8766 H   0  0  0  0  0  0  0  0  0 59
    5.4705   -6.4274   -2.2738 H   0  0  0  0  0  0  0  0  0 60
   10.6821   -0.0515   -1.6325 H   0  0  0  0  0  0  0  0  0 61
   11.2758   -4.7412   -2.2284 H   0  0  0  0  0  0  0  0  0 62
   10.6359   -4.3403   -0.6102 H   0  0  0  0  0  0  0  0  0 63
    7.7377   -6.4066   -2.5345 H   0  0  0  0  0  0  0  0  0 64
    7.5444   -7.8610    0.1586 H   0  0  0  0  0  0  0  0  0 65
    8.7566   -8.1056   -1.1073 H   0  0  0  0  0  0  0  0  0 66
    7.0592   -8.5560   -1.4283 H   0  0  0  0  0  0  0  0  0 67
   14.0814   -3.3152   -3.1357 H   0  0  0  0  0  0  0  0  0 68
   14.9111   -1.1496   -1.3073 H   0  0  0  0  0  0  0  0  0 69
   13.4331    0.1721    0.6186 H   0  0  0  0  0  0  0  0  0 70
    7.6492   -2.1495   -2.6484 H   0  0  0  0  0  0  0  0  0 71
    5.5707   -4.8758    0.4885 H   0  0  0  0  0  0  0  0  0 72
    5.8143   -7.2675    0.1427 H   0  0  0  0  0  0  0  0  0 73
    9.3874    5.9277   -0.0172 H   0  0  0  0  0  0  0  0  0 74
    7.2993    3.2912    0.4223 H   0  0  0  0  0  0  0  0  0 75
    8.9205   -0.6808   -0.0308 H   0  0  0  0  0  0  0  0  0 76
   13.6072    6.4988    0.7991 H   0  0  0  0  0  0  0  0  0 77
    6.6800   -1.6068    0.0322 H   0  0  0  0  0  0  0  0  0 78
   13.9450    2.9343    1.1257 H   0  0  0  0  0  0  0  0  0 79
   13.1197    8.2978   -0.4142 H   0  0  0  0  0  0  0  0  0 80
   12.7631    8.5071    1.3336 H   0  0  0  0  0  0  0  0  0 81
    5.7029    4.1477    1.2394 H   0  0  0  0  0  0  0  0  0 82
    3.9330    4.1966    1.0214 H   0  0  0  0  0  0  0  0  0 83
    3.2839   -1.7166    0.9327 H   0  0  0  0  0  0  0  0  0 84
    4.9556   -2.1403    0.4769 H   0  0  0  0  0  0  0  0  0 85
   11.3475    9.9475   -0.9745 H   0  0  0  0  0  0  0  0  0 86
   10.9897   10.1585    0.7673 H   0  0  0  0  0  0  0  0  0 87
    5.9725    3.9966   -1.2683 H   0  0  0  0  0  0  0  0  0 88
    4.2013    4.0467   -1.4423 H   0  0  0  0  0  0  0  0  0 89
    3.4105   -2.7833   -1.2800 H   0  0  0  0  0  0  0  0  0 90
    2.6958   -1.1524   -1.3418 H   0  0  0  0  0  0  0  0  0 91
   12.5509   11.7206   -0.0113 H   0  0  0  0  0  0  0  0  0 92
    4.2971    6.1520   -0.4962 H   0  0  0  0  0  0  0  0  0 93
    5.3933   -1.7626   -2.1132 H   0  0  0  0  0  0  0  0  0 94
  1 20  1  0  0  0
  1 28  1  0  0  0
  2 25  1  0  0  0
  2 29  1  0  0  0
  3 25  1  0  0  0
  3 30  1  0  0  0
  4 21  1  0  0  0
  4 68  1  0  0  0
  5 22  1  0  0  0
  5 69  1  0  0  0
  6 28  1  0  0  0
  6 32  1  0  0  0
  7 23  1  0  0  0
  7 70  1  0  0  0
  8 24  1  0  0  0
  8 71  1  0  0  0
  9 26  1  0  0  0
  9 72  1  0  0  0
 10 27  1  0  0  0
 10 73  1  0  0  0
 11 33  1  0  0  0
 11 37  1  0  0  0
 12 34  2  0  0  0
 13 38  1  0  0  0
 13 79  1  0  0  0
 14 43  1  0  0  0
 14 47  1  0  0  0
 15 44  1  0  0  0
 15 48  1  0  0  0
 16 46  1  0  0  0
 16 49  1  0  0  0
 17 50  1  0  0  0
 17 92  1  0  0  0
 18 51  1  0  0  0
 18 93  1  0  0  0
 19 52  1  0  0  0
 19 94  1  0  0  0
 20 21  1  0  0  0
 20 29  1  0  0  0
 20 53  1  0  0  0
 21 22  1  0  0  0
 21 54  1  0  0  0
 22 23  1  0  0  0
 22 55  1  0  0  0
 23 28  1  0  0  0
 23 56  1  0  0  0
 24 25  1  0  0  0
 24 26  1  0  0  0
 24 57  1  0  0  0
 25 58  1  0  0  0
 26 27  1  0  0  0
 26 59  1  0  0  0
 27 30  1  0  0  0
 27 60  1  0  0  0
 28 61  1  0  0  0
 29 62  1  0  0  0
 29 63  1  0  0  0
 30 31  1  0  0  0
 30 64  1  0  0  0
 31 65  1  0  0  0
 31 66  1  0  0  0
 31 67  1  0  0  0
 32 33  2  0  0  0
 32 34  1  0  0  0
 33 36  1  0  0  0
 34 35  1  0  0  0
 35 37  1  0  0  0
 35 38  2  0  0  0
 36 40  2  0  0  0
 36 41  1  0  0  0
 37 39  2  0  0  0
 38 42  1  0  0  0
 39 43  1  0  0  0
 39 74  1  0  0  0
 40 44  1  0  0  0
 40 75  1  0  0  0
 41 45  2  0  0  0
 41 76  1  0  0  0
 42 43  2  0  0  0
 42 77  1  0  0  0
 44 46  2  0  0  0
 45 46  1  0  0  0
 45 78  1  0  0  0
 47 50  1  0  0  0
 47 80  1  0  0  0
 47 81  1  0  0  0
 48 51  1  0  0  0
 48 82  1  0  0  0
 48 83  1  0  0  0
 49 52  1  0  0  0
 49 84  1  0  0  0
 49 85  1  0  0  0
 50 86  1  0  0  0
 50 87  1  0  0  0
 51 88  1  0  0  0
 51 89  1  0  0  0
 52 90  1  0  0  0
 52 91  1  0  0  0
M  END
