T1-simp-4514
  MatStudio         3D                             0

 39 40  0  0  0  0  0  0  0  0999 V2000
   16.5070  -12.3929   -1.3157 C   0  0  0  0  0  0  0  0  0  1
   17.1648  -12.8945   -0.1468 O   0  0  0  0  0  0  0  0  0  2
   21.1717  -12.1053    0.5293 C   0  0  0  0  0  0  0  0  0  3
   20.3932  -12.8673    1.4239 C   0  0  0  0  0  0  0  0  0  4
   20.5396  -11.6066   -0.6228 C   0  0  0  0  0  0  0  0  0  5
   19.0671  -13.1097    1.1710 C   0  0  0  0  0  0  0  0  0  6
   19.2073  -11.8433   -0.8884 C   0  0  0  0  0  0  0  0  0  7
   18.4601  -12.6030    0.0141 C   0  0  0  0  0  0  0  0  0  8
   15.0904  -12.8656   -1.2791 C   0  0  0  0  0  0  0  0  0  9
   22.5475  -11.7929    0.6988 C   0  0  0  0  0  0  0  0  0 10
   23.4350  -12.1314    1.6881 C   0  0  0  0  0  0  0  0  0 11
   23.0774  -12.9352    2.7922 C   0  0  0  0  0  0  0  0  0 12
   22.8407  -13.6153    3.7103 N   0  0  0  0  0  0  0  0  0 13
   24.8060  -11.6933    1.6646 C   0  0  0  0  0  0  0  0  0 14
   25.8726  -12.1379    2.9227 S   0  0  0  0  0  0  0  0  0 15
   25.4542  -10.9079    0.7129 C   0  0  0  0  0  0  0  0  0 16
   27.1957  -11.2875    2.2009 C   0  0  0  0  0  0  0  0  0 17
   26.7873  -10.6818    1.0116 C   0  0  0  0  0  0  0  0  0 18
   28.4329  -11.3144    2.8625 C   0  0  0  0  0  0  0  0  0 19
   17.0381  -12.7663   -2.2106 H   0  0  0  0  0  0  0  0  0 20
   16.5696  -11.2890   -1.3117 H   0  0  0  0  0  0  0  0  0 21
   20.8359  -13.2747    2.3362 H   0  0  0  0  0  0  0  0  0 22
   21.1288  -11.0109   -1.3291 H   0  0  0  0  0  0  0  0  0 23
   18.4582  -13.6984    1.8638 H   0  0  0  0  0  0  0  0  0 24
   14.5709  -12.4875   -0.3843 H   0  0  0  0  0  0  0  0  0 25
   15.0437  -13.9662   -1.2781 H   0  0  0  0  0  0  0  0  0 26
   22.9677  -11.1741   -0.1043 H   0  0  0  0  0  0  0  0  0 27
   24.9589  -10.5158   -0.1781 H   0  0  0  0  0  0  0  0  0 28
   27.4599  -10.0920    0.3842 H   0  0  0  0  0  0  0  0  0 29
   28.4763  -11.8834    3.7995 H   0  0  0  0  0  0  0  0  0 30
   29.6164  -10.7228    2.4980 C   0  0  0  0  0  0  0  0  0 31
   29.7625   -9.9529    1.3313 C   0  0  0  0  0  0  0  0  0 32
   30.8228  -10.8536    3.3040 C   0  0  0  0  0  0  0  0  0 33
   31.8935  -10.3417    3.0049 O   0  0  0  0  0  0  0  0  0 34
   30.6488  -11.5905    4.4085 O   0  0  0  0  0  0  0  0  0 35
   29.8597   -9.3172    0.3579 N   0  0  0  0  0  0  0  0  0 36
   31.5152  -11.6122    4.8762 H   0  0  0  0  0  0  0  0  0 37
   18.7512  -11.4385   -1.7946 H   0  0  0  0  0  0  0  0  0 38
   14.5564  -12.4988   -2.1696 H   0  0  0  0  0  0  0  0  0 39
  3  4  1  0  0  0
  3  5  2  0  0  0
  4  6  2  0  0  0
  5  7  1  0  0  0
  6  8  1  0  0  0
  7  8  2  0  0  0
  2  8  1  0  0  0
  1  2  1  0  0  0
  1  9  1  0  0  0
  3 10  1  0  0  0
 10 11  2  0  0  0
 11 12  1  0  0  0
 12 13  3  0  0  0
 14 15  1  0  0  0
 14 16  2  0  0  0
 15 17  1  0  0  0
 16 18  1  0  0  0
 17 18  2  0  0  0
 11 14  1  0  0  0
 17 19  1  0  0  0
  1 20  1  0  0  0
  1 21  1  0  0  0
  4 22  1  0  0  0
  5 23  1  0  0  0
  6 24  1  0  0  0
  9 25  1  0  0  0
  9 26  1  0  0  0
 10 27  1  0  0  0
 16 28  1  0  0  0
 18 29  1  0  0  0
 19 30  1  0  0  0
 19 31  2  0  0  0
 31 32  1  0  0  0
 31 33  1  0  0  0
 33 34  2  0  0  0
 33 35  1  0  0  0
 32 36  3  0  0  0
 35 37  1  0  0  0
  7 38  1  0  0  0
  9 39  1  0  0  0
M  END
