T2-simp-25897
  MatStudio         3D                             0

 46 47  0  0  0  0  0  0  0  0999 V2000
   19.2033  -14.9885   -2.8309 C   0  0  0  0  0  0  0  0  0  1
   18.9977  -13.9043   -1.9041 O   0  0  0  0  0  0  0  0  0  2
   18.3619  -14.7167   -4.0360 C   0  0  0  0  0  0  0  0  0  3
   18.9296  -15.9417   -2.3497 H   0  0  0  0  0  0  0  0  0  4
   20.2782  -15.0281   -3.0876 H   0  0  0  0  0  0  0  0  0  5
   17.2961  -14.6513   -3.7623 H   0  0  0  0  0  0  0  0  0  6
   18.4784  -15.5389   -4.7605 H   0  0  0  0  0  0  0  0  0  7
   20.4020  -16.9732    0.5404 C   0  0  0  0  0  0  0  0  0  8
   19.9160  -15.9135   -0.2917 O   0  0  0  0  0  0  0  0  0  9
   21.3732  -12.0626    0.1562 C   0  0  0  0  0  0  0  0  0 10
   21.8790  -13.1030    0.9521 C   0  0  0  0  0  0  0  0  0 11
   20.4140  -12.3865   -0.8199 C   0  0  0  0  0  0  0  0  0 12
   21.4350  -14.3998    0.8062 C   0  0  0  0  0  0  0  0  0 13
   19.9622  -13.6765   -0.9817 C   0  0  0  0  0  0  0  0  0 14
   20.4568  -14.7020   -0.1401 C   0  0  0  0  0  0  0  0  0 15
   19.6573  -18.2147    0.1719 C   0  0  0  0  0  0  0  0  0 16
   21.8894  -10.7631    0.4057 C   0  0  0  0  0  0  0  0  0 17
   21.6259   -9.5517   -0.1806 C   0  0  0  0  0  0  0  0  0 18
   20.7051   -9.4010   -1.2395 C   0  0  0  0  0  0  0  0  0 19
   19.9422   -9.2177   -2.1031 N   0  0  0  0  0  0  0  0  0 20
   22.2822   -8.3472    0.2561 C   0  0  0  0  0  0  0  0  0 21
   21.9208   -6.8434   -0.4689 S   0  0  0  0  0  0  0  0  0 22
   23.2395   -8.2023    1.2587 C   0  0  0  0  0  0  0  0  0 23
   23.0381   -6.0007    0.5506 C   0  0  0  0  0  0  0  0  0 24
   23.6608   -6.8944    1.4233 C   0  0  0  0  0  0  0  0  0 25
   23.1726   -4.6139    0.3845 C   0  0  0  0  0  0  0  0  0 26
   20.2393  -16.6969    1.5986 H   0  0  0  0  0  0  0  0  0 27
   21.4892  -17.0842    0.3736 H   0  0  0  0  0  0  0  0  0 28
   22.6368  -12.8727    1.7081 H   0  0  0  0  0  0  0  0  0 29
   19.9921  -11.6281   -1.4858 H   0  0  0  0  0  0  0  0  0 30
   21.8327  -15.1866    1.4512 H   0  0  0  0  0  0  0  0  0 31
   19.8221  -18.4725   -0.8865 H   0  0  0  0  0  0  0  0  0 32
   18.5763  -18.0901    0.3434 H   0  0  0  0  0  0  0  0  0 33
   22.6260  -10.7291    1.2178 H   0  0  0  0  0  0  0  0  0 34
   23.6194   -9.0376    1.8512 H   0  0  0  0  0  0  0  0  0 35
   24.4069   -6.5847    2.1588 H   0  0  0  0  0  0  0  0  0 36
   22.5550   -4.1459   -0.3921 H   0  0  0  0  0  0  0  0  0 37
   23.9817   -3.7443    1.0728 C   0  0  0  0  0  0  0  0  0 38
   24.8436   -4.1521    2.1056 C   0  0  0  0  0  0  0  0  0 39
   24.0066   -2.3166    0.7848 C   0  0  0  0  0  0  0  0  0 40
   24.7096   -1.5193    1.3919 O   0  0  0  0  0  0  0  0  0 41
   23.1852   -1.9577   -0.2097 O   0  0  0  0  0  0  0  0  0 42
   25.5537   -4.5149    2.9572 N   0  0  0  0  0  0  0  0  0 43
   23.2797   -0.9833   -0.3195 H   0  0  0  0  0  0  0  0  0 44
   18.6595  -13.7755   -4.5258 H   0  0  0  0  0  0  0  0  0 45
   20.0110  -19.0538    0.7914 H   0  0  0  0  0  0  0  0  0 46
  1  2  1  0  0  0
  1  3  1  0  0  0
  1  4  1  0  0  0
  1  5  1  0  0  0
  3  6  1  0  0  0
  3  7  1  0  0  0
 10 11  1  0  0  0
 10 12  2  0  0  0
 11 13  2  0  0  0
 12 14  1  0  0  0
 13 15  1  0  0  0
 14 15  2  0  0  0
  9 15  1  0  0  0
  8  9  1  0  0  0
  8 16  1  0  0  0
 10 17  1  0  0  0
 17 18  2  0  0  0
 18 19  1  0  0  0
 19 20  3  0  0  0
 21 22  1  0  0  0
 21 23  2  0  0  0
 22 24  1  0  0  0
 23 25  1  0  0  0
 24 25  2  0  0  0
 18 21  1  0  0  0
 24 26  1  0  0  0
  8 27  1  0  0  0
  8 28  1  0  0  0
 11 29  1  0  0  0
 12 30  1  0  0  0
 13 31  1  0  0  0
 16 32  1  0  0  0
 16 33  1  0  0  0
 17 34  1  0  0  0
 23 35  1  0  0  0
 25 36  1  0  0  0
 26 37  1  0  0  0
 14  2  1  0  0  0
 26 38  2  0  0  0
 38 39  1  0  0  0
 38 40  1  0  0  0
 40 41  2  0  0  0
 40 42  1  0  0  0
 39 43  3  0  0  0
 42 44  1  0  0  0
  3 45  1  0  0  0
 16 46  1  0  0  0
M  END
