T3-simp-33665
  MatStudio         3D                             0

 43 45  0  0  0  0  0  0  0  0999 V2000
   29.8019  -10.2211    1.7158 O   0  0  0  0  0  0  0  0  0  1
   28.7293   -6.2132   -0.6188 O   0  0  0  0  0  0  0  0  0  2
   19.9631  -16.6190   -5.3826 C   0  0  0  0  0  0  0  0  0  3
   20.4510  -15.3419   -5.8232 O   0  0  0  0  0  0  0  0  0  4
   23.3333  -13.2949   -3.6498 C   0  0  0  0  0  0  0  0  0  5
   22.8858  -14.5553   -3.2186 C   0  0  0  0  0  0  0  0  0  6
   22.7457  -12.7653   -4.8173 C   0  0  0  0  0  0  0  0  0  7
   21.9278  -15.2591   -3.9114 C   0  0  0  0  0  0  0  0  0  8
   21.8013  -13.4668   -5.5284 C   0  0  0  0  0  0  0  0  0  9
   21.3820  -14.7268   -5.0840 C   0  0  0  0  0  0  0  0  0 10
   20.9110  -17.7336   -5.7091 C   0  0  0  0  0  0  0  0  0 11
   24.3399  -12.5341   -2.9928 C   0  0  0  0  0  0  0  0  0 12
   25.1690  -12.8839   -1.9557 C   0  0  0  0  0  0  0  0  0 13
   25.1580  -14.1754   -1.3796 C   0  0  0  0  0  0  0  0  0 14
   25.2169  -15.2224   -0.8690 N   0  0  0  0  0  0  0  0  0 15
   26.1320  -12.0104   -1.3417 C   0  0  0  0  0  0  0  0  0 16
   26.2835  -10.3457   -1.6920 S   0  0  0  0  0  0  0  0  0 17
   27.0408  -12.3991   -0.3580 C   0  0  0  0  0  0  0  0  0 18
   27.5785  -10.1506   -0.5322 C   0  0  0  0  0  0  0  0  0 19
   27.8434  -11.3692    0.0922 C   0  0  0  0  0  0  0  0  0 20
   28.1267   -8.8707   -0.3936 C   0  0  0  0  0  0  0  0  0 21
   29.0977   -8.3283    0.4233 C   0  0  0  0  0  0  0  0  0 22
   29.3190   -6.8961    0.2201 C   0  0  0  0  0  0  0  0  0 23
   29.8659   -9.0205    1.4367 C   0  0  0  0  0  0  0  0  0 24
   30.2530   -6.2984    1.0370 N   0  0  0  0  0  0  0  0  0 25
   30.7528   -8.2433    2.1562 N   0  0  0  0  0  0  0  0  0 26
   30.9934   -6.9047    2.0161 C   0  0  0  0  0  0  0  0  0 27
   31.8041   -6.2999    2.7078 O   0  0  0  0  0  0  0  0  0 28
   19.0087  -16.7437   -5.9166 H   0  0  0  0  0  0  0  0  0 29
   19.7368  -16.5635   -4.3030 H   0  0  0  0  0  0  0  0  0 30
   23.2914  -15.0081   -2.3117 H   0  0  0  0  0  0  0  0  0 31
   23.0628  -11.7776   -5.1700 H   0  0  0  0  0  0  0  0  0 32
   21.6069  -16.2316   -3.5319 H   0  0  0  0  0  0  0  0  0 33
   21.3565  -13.0579   -6.4407 H   0  0  0  0  0  0  0  0  0 34
   21.8825  -17.6127   -5.2035 H   0  0  0  0  0  0  0  0  0 35
   21.0878  -17.7924   -6.7945 H   0  0  0  0  0  0  0  0  0 36
   24.4865  -11.5202   -3.3929 H   0  0  0  0  0  0  0  0  0 37
   27.0955  -13.4276    0.0078 H   0  0  0  0  0  0  0  0  0 38
   28.6215  -11.4288    0.8568 H   0  0  0  0  0  0  0  0  0 39
   27.7077   -8.1022   -1.0644 H   0  0  0  0  0  0  0  0  0 40
   30.4152   -5.2963    0.8985 H   0  0  0  0  0  0  0  0  0 41
   31.2920   -8.7310    2.8784 H   0  0  0  0  0  0  0  0  0 42
   20.4733  -18.6899   -5.3790 H   0  0  0  0  0  0  0  0  0 43
  5  6  1  0  0  0
  5  7  2  0  0  0
  6  8  2  0  0  0
  7  9  1  0  0  0
  8 10  1  0  0  0
  9 10  2  0  0  0
  4 10  1  0  0  0
  3  4  1  0  0  0
  3 11  1  0  0  0
  5 12  1  0  0  0
 12 13  2  0  0  0
 13 14  1  0  0  0
 14 15  3  0  0  0
 16 17  1  0  0  0
 16 18  2  0  0  0
 17 19  1  0  0  0
 18 20  1  0  0  0
 19 20  2  0  0  0
 13 16  1  0  0  0
 19 21  1  0  0  0
 22 23  1  0  0  0
 22 24  1  0  0  0
 23 25  1  0  0  0
 24 26  1  0  0  0
 25 27  1  0  0  0
 26 27  1  0  0  0
 21 22  2  0  0  0
  2 23  2  0  0  0
  1 24  2  0  0  0
 27 28  2  0  0  0
  3 29  1  0  0  0
  3 30  1  0  0  0
  6 31  1  0  0  0
  7 32  1  0  0  0
  8 33  1  0  0  0
  9 34  1  0  0  0
 11 35  1  0  0  0
 11 36  1  0  0  0
 12 37  1  0  0  0
 18 38  1  0  0  0
 20 39  1  0  0  0
 21 40  1  0  0  0
 25 41  1  0  0  0
 26 42  1  0  0  0
 11 43  1  0  0  0
M  END
