10d-18029
  MatStudio         3D                             0

 82 89  0  0  0  0  0  0  0  0999 V2000
   24.2556  -19.2090    2.0378 N   0  0  0  0  0  0  0  0  0  1
   12.9384   -9.7622   -1.3022 C   0  0  0  0  0  0  0  0  0  2
   13.3989   -6.6040   -3.1978 C   0  0  0  0  0  0  0  0  0  3
   13.6462   -7.8371   -2.7153 C   0  0  0  0  0  0  0  0  0  4
   12.3433   -5.8303   -2.7487 O   0  0  0  0  0  0  0  0  0  5
   12.7608   -8.4886   -1.7753 C   0  0  0  0  0  0  0  0  0  6
   11.4756   -6.3978   -1.8310 C   0  0  0  0  0  0  0  0  0  7
   11.6397   -7.6612   -1.3940 C   0  0  0  0  0  0  0  0  0  8
   11.8958  -10.4538   -0.4907 C   0  0  0  0  0  0  0  0  0  9
   10.6105  -10.7112   -0.9846 C   0  0  0  0  0  0  0  0  0 10
   12.2105  -10.9172    0.7935 C   0  0  0  0  0  0  0  0  0 11
    9.6771  -11.4109   -0.2235 C   0  0  0  0  0  0  0  0  0 12
   11.2770  -11.6057    1.5591 C   0  0  0  0  0  0  0  0  0 13
   10.0036  -11.8591    1.0529 C   0  0  0  0  0  0  0  0  0 14
   14.1677  -10.5569   -1.5255 C   0  0  0  0  0  0  0  0  0 15
   14.0587  -11.8687   -2.0175 C   0  0  0  0  0  0  0  0  0 16
   15.4427  -10.1044   -1.1509 C   0  0  0  0  0  0  0  0  0 17
   15.1542  -12.7053   -2.0991 C   0  0  0  0  0  0  0  0  0 18
   16.5454  -10.9451   -1.2022 C   0  0  0  0  0  0  0  0  0 19
   16.4165  -12.2657   -1.6624 C   0  0  0  0  0  0  0  0  0 20
   17.4958  -13.1815   -1.6285 C   0  0  0  0  0  0  0  0  0 21
   18.3547  -14.0392   -1.5694 C   0  0  0  0  0  0  0  0  0 22
   19.2618  -15.0942   -1.4154 C   0  0  0  0  0  0  0  0  0 23
   20.4290  -15.0991   -0.1359 S   0  0  0  0  0  0  0  0  0 24
   19.2849  -16.2988   -2.1185 C   0  0  0  0  0  0  0  0  0 25
   20.8736  -16.7600   -0.4709 C   0  0  0  0  0  0  0  0  0 26
   20.1615  -17.2337   -1.5682 C   0  0  0  0  0  0  0  0  0 27
   21.8680  -17.3599    0.3486 C   0  0  0  0  0  0  0  0  0 28
   22.1308  -18.6709    0.6754 C   0  0  0  0  0  0  0  0  0 29
   23.3041  -18.9230    1.4395 C   0  0  0  0  0  0  0  0  0 30
   21.2463  -19.8360    0.4319 C   0  0  0  0  0  0  0  0  0 31
   20.1708  -19.7805   -0.1300 O   0  0  0  0  0  0  0  0  0 32
   21.6572  -21.0337    0.9099 O   0  0  0  0  0  0  0  0  0 33
   14.5058   -8.3635   -3.0997 H   0  0  0  0  0  0  0  0  0 34
   10.9084   -8.0589   -0.7108 H   0  0  0  0  0  0  0  0  0 35
   10.3497  -10.3803   -1.9825 H   0  0  0  0  0  0  0  0  0 36
   13.1994  -10.7371    1.1956 H   0  0  0  0  0  0  0  0  0 37
    8.6942  -11.6050   -0.6349 H   0  0  0  0  0  0  0  0  0 38
   11.5421  -11.9457    2.5528 H   0  0  0  0  0  0  0  0  0 39
    9.2752  -12.4008    1.6433 H   0  0  0  0  0  0  0  0  0 40
   13.0901  -12.2428   -2.3221 H   0  0  0  0  0  0  0  0  0 41
   15.5598   -9.1054   -0.7507 H   0  0  0  0  0  0  0  0  0 42
   15.0446  -13.7113   -2.4806 H   0  0  0  0  0  0  0  0  0 43
   17.5078  -10.5885   -0.8606 H   0  0  0  0  0  0  0  0  0 44
   18.6598  -16.4790   -2.9810 H   0  0  0  0  0  0  0  0  0 45
   20.2995  -18.2267   -1.9602 H   0  0  0  0  0  0  0  0  0 46
   22.5364  -16.6501    0.8243 H   0  0  0  0  0  0  0  0  0 47
   22.5237  -20.9925    1.3448 H   0  0  0  0  0  0  0  0  0 48
   14.2063   -5.9592   -4.2446 C   0  0  0  0  0  0  0  0  0 49
   10.3941   -5.5001   -1.3963 C   0  0  0  0  0  0  0  0  0 50
   14.7598   -6.7419   -5.2392 C   0  0  0  0  0  0  0  0  0 51
   15.5925   -6.1887   -6.2362 C   0  0  0  0  0  0  0  0  0 52
   15.8780   -4.7898   -6.2101 C   0  0  0  0  0  0  0  0  0 53
   15.2775   -3.9975   -5.1963 C   0  0  0  0  0  0  0  0  0 54
   14.4535   -4.5590   -4.2511 C   0  0  0  0  0  0  0  0  0 55
   10.0359   -4.3388   -2.1344 C   0  0  0  0  0  0  0  0  0 56
    8.9960   -3.5383   -1.7276 C   0  0  0  0  0  0  0  0  0 57
    8.2504   -3.8348   -0.5591 C   0  0  0  0  0  0  0  0  0 58
    8.6153   -4.9895    0.1953 C   0  0  0  0  0  0  0  0  0 59
    9.6925   -5.7875   -0.2400 C   0  0  0  0  0  0  0  0  0 60
   14.5512   -7.8023   -5.2768 H   0  0  0  0  0  0  0  0  0 61
   15.4691   -2.9317   -5.1846 H   0  0  0  0  0  0  0  0  0 62
   13.9954   -3.9368   -3.4943 H   0  0  0  0  0  0  0  0  0 63
   10.5848   -4.0921   -3.0324 H   0  0  0  0  0  0  0  0  0 64
    8.7319   -2.6637   -2.3094 H   0  0  0  0  0  0  0  0  0 65
    9.9629   -6.6333    0.3752 H   0  0  0  0  0  0  0  0  0 66
   16.7273   -4.2482   -7.2090 C   0  0  0  0  0  0  0  0  0 67
   17.2407   -5.0513   -8.2006 C   0  0  0  0  0  0  0  0  0 68
   16.9419   -6.4327   -8.2336 C   0  0  0  0  0  0  0  0  0 69
   16.1372   -6.9914   -7.2714 C   0  0  0  0  0  0  0  0  0 70
    7.8939   -5.3052    1.3753 C   0  0  0  0  0  0  0  0  0 71
    6.8527   -4.5128    1.7878 C   0  0  0  0  0  0  0  0  0 72
    6.4895   -3.3671    1.0420 C   0  0  0  0  0  0  0  0  0 73
    7.1688   -3.0370   -0.1064 C   0  0  0  0  0  0  0  0  0 74
   16.9514   -3.1887   -7.1901 H   0  0  0  0  0  0  0  0  0 75
   17.8778   -4.6275   -8.9669 H   0  0  0  0  0  0  0  0  0 76
   17.3547   -7.0483   -9.0229 H   0  0  0  0  0  0  0  0  0 77
   15.9187   -8.0519   -7.2789 H   0  0  0  0  0  0  0  0  0 78
    8.1764   -6.1840    1.9419 H   0  0  0  0  0  0  0  0  0 79
    6.3028   -4.7578    2.6883 H   0  0  0  0  0  0  0  0  0 80
    5.6662   -2.7497    1.3792 H   0  0  0  0  0  0  0  0  0 81
    6.8889   -2.1602   -0.6778 H   0  0  0  0  0  0  0  0  0 82
  3  4  2  0  0  0
  3  5  1  0  0  0
  4  6  1  0  0  0
  5  7  1  0  0  0
  6  8  1  0  0  0
  7  8  2  0  0  0
  2  6  2  0  0  0
  9 10  1  0  0  0
  9 11  2  0  0  0
 10 12  2  0  0  0
 11 13  1  0  0  0
 12 14  1  0  0  0
 13 14  2  0  0  0
  2  9  1  0  0  0
 15 16  1  0  0  0
 15 17  2  0  0  0
 16 18  2  0  0  0
 17 19  1  0  0  0
 18 20  1  0  0  0
 19 20  2  0  0  0
  2 15  1  0  0  0
 20 21  1  0  0  0
 21 22  3  0  0  0
 23 24  1  0  0  0
 23 25  2  0  0  0
 24 26  1  0  0  0
 25 27  1  0  0  0
 26 27  2  0  0  0
 22 23  1  0  0  0
 26 28  1  0  0  0
 28 29  2  0  0  0
 29 30  1  0  0  0
 29 31  1  0  0  0
  1 30  3  0  0  0
 31 32  2  0  0  0
 31 33  1  0  0  0
  4 34  1  0  0  0
  8 35  1  0  0  0
 10 36  1  0  0  0
 11 37  1  0  0  0
 12 38  1  0  0  0
 13 39  1  0  0  0
 14 40  1  0  0  0
 16 41  1  0  0  0
 17 42  1  0  0  0
 18 43  1  0  0  0
 19 44  1  0  0  0
 25 45  1  0  0  0
 27 46  1  0  0  0
 28 47  1  0  0  0
 33 48  1  0  0  0
  3 49  1  0  0  0
  7 50  1  0  0  0
 52 51  2  0  0  0
 53 52  1  0  0  0
 54 53  2  0  0  0
 55 54  1  0  0  0
 49 51  1  0  0  0
 49 55  2  0  0  0
 57 56  2  0  0  0
 58 57  1  0  0  0
 59 58  2  0  0  0
 60 59  1  0  0  0
 50 56  1  0  0  0
 50 60  2  0  0  0
 51 61  1  0  0  0
 54 62  1  0  0  0
 55 63  1  0  0  0
 56 64  1  0  0  0
 57 65  1  0  0  0
 60 66  1  0  0  0
 68 67  2  0  0  0
 69 68  1  0  0  0
 70 69  2  0  0  0
 53 67  1  0  0  0
 52 70  1  0  0  0
 72 71  2  0  0  0
 73 72  1  0  0  0
 74 73  2  0  0  0
 59 71  1  0  0  0
 58 74  1  0  0  0
 67 75  1  0  0  0
 68 76  1  0  0  0
 69 77  1  0  0  0
 70 78  1  0  0  0
 71 79  1  0  0  0
 72 80  1  0  0  0
 73 81  1  0  0  0
 74 82  1  0  0  0
M  END
