12a-25897
  MatStudio         3D                             0

 64 69  0  0  0  0  0  0  0  0999 V2000
   16.5319  -11.0734    0.3459 C   0  0  0  0  0  0  0  0  0  1
   15.0015  -11.5713    1.0060 S   0  0  0  0  0  0  0  0  0  2
   16.3480  -10.1404   -0.6577 C   0  0  0  0  0  0  0  0  0  3
   14.1204  -10.5502   -0.0897 C   0  0  0  0  0  0  0  0  0  4
   14.9861   -9.8568   -0.9033 C   0  0  0  0  0  0  0  0  0  5
   27.0300  -14.7992    0.8379 N   0  0  0  0  0  0  0  0  0  6
   12.6395  -10.5756   -0.0819 C   0  0  0  0  0  0  0  0  0  7
   13.4392   -4.1586    3.8968 C   0  0  0  0  0  0  0  0  0  8
   14.2245   -5.3075    3.8273 C   0  0  0  0  0  0  0  0  0  9
   12.1334   -4.1802    3.4138 C   0  0  0  0  0  0  0  0  0 10
   13.7119   -6.4754    3.2748 C   0  0  0  0  0  0  0  0  0 11
   11.6149   -5.3478    2.8650 C   0  0  0  0  0  0  0  0  0 12
   12.4029   -6.5028    2.7768 C   0  0  0  0  0  0  0  0  0 13
   11.8680   -7.7150    2.1441 C   0  0  0  0  0  0  0  0  0 14
   12.5758   -8.6016    1.4168 C   0  0  0  0  0  0  0  0  0 15
   10.5051   -7.8294    2.3082 O   0  0  0  0  0  0  0  0  0 16
   11.9404   -9.7113    0.7367 C   0  0  0  0  0  0  0  0  0 17
    9.8529   -8.8972    1.7349 C   0  0  0  0  0  0  0  0  0 18
   10.5185   -9.7937    0.9793 C   0  0  0  0  0  0  0  0  0 19
    8.4100   -8.8963    2.0183 C   0  0  0  0  0  0  0  0  0 20
    7.7913   -7.7459    2.5282 C   0  0  0  0  0  0  0  0  0 21
    7.6194  -10.0269    1.7635 C   0  0  0  0  0  0  0  0  0 22
    6.4192   -7.7243    2.7536 C   0  0  0  0  0  0  0  0  0 23
    6.2502  -10.0009    1.9899 C   0  0  0  0  0  0  0  0  0 24
    5.6434   -8.8489    2.4914 C   0  0  0  0  0  0  0  0  0 25
   17.7347  -11.6532    0.7561 C   0  0  0  0  0  0  0  0  0 26
   18.7869  -12.1830    1.0544 C   0  0  0  0  0  0  0  0  0 27
   19.9736  -12.8839    1.2744 C   0  0  0  0  0  0  0  0  0 28
   21.4823  -12.3538    0.5969 S   0  0  0  0  0  0  0  0  0 29
   20.1229  -14.0914    1.9436 C   0  0  0  0  0  0  0  0  0 30
   22.2938  -13.8008    1.1456 C   0  0  0  0  0  0  0  0  0 31
   21.4196  -14.6045    1.8646 C   0  0  0  0  0  0  0  0  0 32
   23.6942  -13.9401    0.9113 C   0  0  0  0  0  0  0  0  0 33
   24.4624  -15.0705    0.8774 C   0  0  0  0  0  0  0  0  0 34
   25.8785  -14.9179    0.8554 C   0  0  0  0  0  0  0  0  0 35
   24.0239  -16.4932    0.8520 C   0  0  0  0  0  0  0  0  0 36
   24.7342  -17.3946    1.2512 O   0  0  0  0  0  0  0  0  0 37
   22.8235  -16.7890    0.3177 O   0  0  0  0  0  0  0  0  0 38
   12.0471  -11.5777   -0.9671 C   0  0  0  0  0  0  0  0  0 39
   10.4910  -11.3826   -1.7660 S   0  0  0  0  0  0  0  0  0 40
   12.6223  -12.7545   -1.4052 C   0  0  0  0  0  0  0  0  0 41
   10.6424  -12.8783   -2.6091 C   0  0  0  0  0  0  0  0  0 42
   11.8266  -13.4916   -2.3165 C   0  0  0  0  0  0  0  0  0 43
   17.1690   -9.7030   -1.2077 H   0  0  0  0  0  0  0  0  0 44
   14.6444   -9.1707   -1.6656 H   0  0  0  0  0  0  0  0  0 45
   13.8426   -3.2533    4.3320 H   0  0  0  0  0  0  0  0  0 46
   15.2343   -5.2985    4.2180 H   0  0  0  0  0  0  0  0  0 47
   11.5194   -3.2901    3.4634 H   0  0  0  0  0  0  0  0  0 48
   14.3195   -7.3700    3.2458 H   0  0  0  0  0  0  0  0  0 49
   10.6043   -5.3568    2.4803 H   0  0  0  0  0  0  0  0  0 50
   13.6324   -8.4264    1.2901 H   0  0  0  0  0  0  0  0  0 51
    9.9526  -10.6092    0.5656 H   0  0  0  0  0  0  0  0  0 52
    8.3803   -6.8649    2.7361 H   0  0  0  0  0  0  0  0  0 53
    8.0717  -10.9366    1.3943 H   0  0  0  0  0  0  0  0  0 54
    5.9568   -6.8241    3.1375 H   0  0  0  0  0  0  0  0  0 55
    5.6587  -10.8837    1.7820 H   0  0  0  0  0  0  0  0  0 56
    4.5761   -8.8300    2.6697 H   0  0  0  0  0  0  0  0  0 57
   19.3070  -14.5753    2.4569 H   0  0  0  0  0  0  0  0  0 58
   21.7208  -15.5192    2.3521 H   0  0  0  0  0  0  0  0  0 59
   24.2325  -13.0086    0.7718 H   0  0  0  0  0  0  0  0  0 60
   22.3819  -16.0053   -0.0493 H   0  0  0  0  0  0  0  0  0 61
   13.5919  -13.0917   -1.0696 H   0  0  0  0  0  0  0  0  0 62
    9.8486  -13.2106   -3.2594 H   0  0  0  0  0  0  0  0  0 63
   12.1261  -14.4401   -2.7403 H   0  0  0  0  0  0  0  0  0 64
  1  2  1  0  0  0
  1  3  2  0  0  0
  2  4  1  0  0  0
  3  5  1  0  0  0
  4  5  2  0  0  0
  8  9  1  0  0  0
  8 10  2  0  0  0
  9 11  2  0  0  0
 10 12  1  0  0  0
 11 13  1  0  0  0
 12 13  2  0  0  0
 14 15  2  0  0  0
 14 16  1  0  0  0
 15 17  1  0  0  0
 16 18  1  0  0  0
 17 19  1  0  0  0
 18 19  2  0  0  0
 13 14  1  0  0  0
 20 21  1  0  0  0
 20 22  2  0  0  0
 21 23  2  0  0  0
 22 24  1  0  0  0
 23 25  1  0  0  0
 24 25  2  0  0  0
 18 20  1  0  0  0
  7 17  2  0  0  0
 26 27  3  0  0  0
 28 29  1  0  0  0
 28 30  2  0  0  0
 29 31  1  0  0  0
 30 32  1  0  0  0
 31 32  2  0  0  0
 27 28  1  0  0  0
 31 33  1  0  0  0
 33 34  2  0  0  0
 34 35  1  0  0  0
 34 36  1  0  0  0
  6 35  3  0  0  0
 36 37  2  0  0  0
 36 38  1  0  0  0
 26  1  1  0  0  0
  7  4  1  0  0  0
 39 40  1  0  0  0
 39 41  2  0  0  0
 40 42  1  0  0  0
 41 43  1  0  0  0
 42 43  2  0  0  0
  7 39  1  0  0  0
  3 44  1  0  0  0
  5 45  1  0  0  0
  8 46  1  0  0  0
  9 47  1  0  0  0
 10 48  1  0  0  0
 11 49  1  0  0  0
 12 50  1  0  0  0
 15 51  1  0  0  0
 19 52  1  0  0  0
 21 53  1  0  0  0
 22 54  1  0  0  0
 23 55  1  0  0  0
 24 56  1  0  0  0
 25 57  1  0  0  0
 30 58  1  0  0  0
 32 59  1  0  0  0
 33 60  1  0  0  0
 38 61  1  0  0  0
 41 62  1  0  0  0
 42 63  1  0  0  0
 43 64  1  0  0  0
M  END
