19a-32394
  MatStudio         3D                             0

 60 64  0  0  0  0  0  0  0  0999 V2000
   16.3259  -12.5214    0.8202 C   0  0  0  0  0  0  0  0  0  1
   26.7592  -13.7220   -2.2150 N   0  0  0  0  0  0  0  0  0  2
   12.3875  -11.1610   -0.1490 C   0  0  0  0  0  0  0  0  0  3
   11.0462  -16.7319   -5.2017 C   0  0  0  0  0  0  0  0  0  4
   10.5025  -15.5724   -5.7484 C   0  0  0  0  0  0  0  0  0  5
   11.5272  -16.7086   -3.8938 C   0  0  0  0  0  0  0  0  0  6
   10.4323  -14.4047   -4.9959 C   0  0  0  0  0  0  0  0  0  7
   11.4656  -15.5428   -3.1411 C   0  0  0  0  0  0  0  0  0  8
   10.9177  -14.3709   -3.6827 C   0  0  0  0  0  0  0  0  0  9
   10.8575  -13.1318   -2.8979 C   0  0  0  0  0  0  0  0  0 10
   11.6858  -12.8109   -1.8854 C   0  0  0  0  0  0  0  0  0 11
    9.8627  -12.2751   -3.3179 O   0  0  0  0  0  0  0  0  0 12
   11.5479  -11.5773   -1.1489 C   0  0  0  0  0  0  0  0  0 13
    9.6336  -11.1188   -2.5962 C   0  0  0  0  0  0  0  0  0 14
   10.3960  -10.7932   -1.5332 C   0  0  0  0  0  0  0  0  0 15
    8.4988  -10.3430   -3.1133 C   0  0  0  0  0  0  0  0  0 16
    7.4704  -10.9698   -3.8315 C   0  0  0  0  0  0  0  0  0 17
    8.4248   -8.9600   -2.8923 C   0  0  0  0  0  0  0  0  0 18
    6.3740  -10.2354   -4.2745 C   0  0  0  0  0  0  0  0  0 19
    7.3295   -8.2304   -3.3396 C   0  0  0  0  0  0  0  0  0 20
    6.3023   -8.8659   -4.0359 C   0  0  0  0  0  0  0  0  0 21
   17.6649  -12.8919    1.0592 C   0  0  0  0  0  0  0  0  0 22
   18.8446  -13.1759    1.1360 C   0  0  0  0  0  0  0  0  0 23
   20.2108  -13.4367    1.0089 C   0  0  0  0  0  0  0  0  0 24
   20.9469  -13.2265   -0.5506 S   0  0  0  0  0  0  0  0  0 25
   21.1265  -13.8740    1.9592 C   0  0  0  0  0  0  0  0  0 26
   22.5064  -13.7273    0.0657 C   0  0  0  0  0  0  0  0  0 27
   22.4042  -14.0323    1.4289 C   0  0  0  0  0  0  0  0  0 28
   23.7570  -13.7899   -0.5944 C   0  0  0  0  0  0  0  0  0 29
   24.2081  -13.5213   -1.8674 C   0  0  0  0  0  0  0  0  0 30
   25.6123  -13.6354   -2.0770 C   0  0  0  0  0  0  0  0  0 31
   23.3858  -13.1358   -3.0160 C   0  0  0  0  0  0  0  0  0 32
   22.1704  -13.0258   -2.9956 O   0  0  0  0  0  0  0  0  0 33
   24.1150  -12.9218   -4.1328 O   0  0  0  0  0  0  0  0  0 34
   11.0968  -17.6428   -5.7845 H   0  0  0  0  0  0  0  0  0 35
   10.1306  -15.5736   -6.7659 H   0  0  0  0  0  0  0  0  0 36
   11.9428  -17.6056   -3.4519 H   0  0  0  0  0  0  0  0  0 37
   10.0077  -13.5115   -5.4322 H   0  0  0  0  0  0  0  0  0 38
   11.8256  -15.5550   -2.1211 H   0  0  0  0  0  0  0  0  0 39
   12.4470  -13.5210   -1.6098 H   0  0  0  0  0  0  0  0  0 40
   10.1636   -9.8935   -0.9820 H   0  0  0  0  0  0  0  0  0 41
    7.5137  -12.0343   -4.0135 H   0  0  0  0  0  0  0  0  0 42
    9.2292   -8.4493   -2.3794 H   0  0  0  0  0  0  0  0  0 43
    5.5777  -10.7363   -4.8108 H   0  0  0  0  0  0  0  0  0 44
    7.2948   -7.1616   -3.1718 H   0  0  0  0  0  0  0  0  0 45
    5.4540   -8.2963   -4.3924 H   0  0  0  0  0  0  0  0  0 46
   20.8570  -14.0715    2.9859 H   0  0  0  0  0  0  0  0  0 47
   23.2587  -14.3619    2.0034 H   0  0  0  0  0  0  0  0  0 48
   24.5408  -14.1018    0.0878 H   0  0  0  0  0  0  0  0  0 49
   23.4992  -12.6804   -4.8464 H   0  0  0  0  0  0  0  0  0 50
   15.8349  -12.6299   -0.4942 C   0  0  0  0  0  0  0  0  0 51
   14.5559  -12.2236   -0.8062 C   0  0  0  0  0  0  0  0  0 52
   13.7006  -11.6781    0.1748 C   0  0  0  0  0  0  0  0  0 53
   14.2085  -11.5597    1.4868 C   0  0  0  0  0  0  0  0  0 54
   15.4853  -11.9798    1.8103 C   0  0  0  0  0  0  0  0  0 55
   12.0536  -10.3257    0.4580 H   0  0  0  0  0  0  0  0  0 56
   16.4885  -13.0063   -1.2691 H   0  0  0  0  0  0  0  0  0 57
   14.2368  -12.2699   -1.8379 H   0  0  0  0  0  0  0  0  0 58
   13.5757  -11.1322    2.2561 H   0  0  0  0  0  0  0  0  0 59
   15.8473  -11.8755    2.8240 H   0  0  0  0  0  0  0  0  0 60
  4  5  1  0  0  0
  4  6  2  0  0  0
  5  7  2  0  0  0
  6  8  1  0  0  0
  7  9  1  0  0  0
  8  9  2  0  0  0
 10 11  2  0  0  0
 10 12  1  0  0  0
 11 13  1  0  0  0
 12 14  1  0  0  0
 13 15  1  0  0  0
 14 15  2  0  0  0
  9 10  1  0  0  0
 16 17  1  0  0  0
 16 18  2  0  0  0
 17 19  2  0  0  0
 18 20  1  0  0  0
 19 21  1  0  0  0
 20 21  2  0  0  0
 14 16  1  0  0  0
  3 13  2  0  0  0
 22 23  3  0  0  0
 24 25  1  0  0  0
 24 26  2  0  0  0
 25 27  1  0  0  0
 26 28  1  0  0  0
 27 28  2  0  0  0
 23 24  1  0  0  0
 27 29  1  0  0  0
 29 30  2  0  0  0
 30 31  1  0  0  0
 30 32  1  0  0  0
  2 31  3  0  0  0
 32 33  2  0  0  0
 32 34  1  0  0  0
 22  1  1  0  0  0
  4 35  1  0  0  0
  5 36  1  0  0  0
  6 37  1  0  0  0
  7 38  1  0  0  0
  8 39  1  0  0  0
 11 40  1  0  0  0
 15 41  1  0  0  0
 17 42  1  0  0  0
 18 43  1  0  0  0
 19 44  1  0  0  0
 20 45  1  0  0  0
 21 46  1  0  0  0
 26 47  1  0  0  0
 28 48  1  0  0  0
 29 49  1  0  0  0
 34 50  1  0  0  0
 52 51  1  0  0  0
 53 52  2  0  0  0
 54 53  1  0  0  0
 55 54  2  0  0  0
  1 51  2  0  0  0
  1 55  1  0  0  0
 53  3  1  0  0  0
  3 56  1  0  0  0
 51 57  1  0  0  0
 52 58  1  0  0  0
 54 59  1  0  0  0
 55 60  1  0  0  0
M  END
