21a-18242
  MatStudio         3D                             0

 77 83  0  0  0  0  0  0  0  0999 V2000
   19.5504  -19.3812   -1.0285 C   0  0  0  0  0  0  0  0  0  1
   19.9136  -20.9485   -1.6723 S   0  0  0  0  0  0  0  0  0  2
   20.7003  -18.7817   -0.5271 C   0  0  0  0  0  0  0  0  0  3
   21.6014  -20.8100   -1.2337 C   0  0  0  0  0  0  0  0  0  4
   21.8395  -19.5806   -0.6332 C   0  0  0  0  0  0  0  0  0  5
   25.2021  -23.7713   -2.5267 N   0  0  0  0  0  0  0  0  0  6
   13.1183  -12.1445    4.9829 C   0  0  0  0  0  0  0  0  0  7
   13.5531   -8.8919    3.2459 C   0  0  0  0  0  0  0  0  0  8
   13.3576  -10.2084    3.4537 C   0  0  0  0  0  0  0  0  0  9
   13.8230   -8.0342    4.2952 O   0  0  0  0  0  0  0  0  0 10
   13.3190  -10.7912    4.7771 C   0  0  0  0  0  0  0  0  0 11
   13.8505   -8.5403    5.5803 C   0  0  0  0  0  0  0  0  0 12
   13.5436   -9.8300    5.8323 C   0  0  0  0  0  0  0  0  0 13
   12.7225  -12.6978    6.2928 C   0  0  0  0  0  0  0  0  0 14
   11.8105  -12.0231    7.1242 C   0  0  0  0  0  0  0  0  0 15
   13.2228  -13.9313    6.7459 C   0  0  0  0  0  0  0  0  0 16
   11.4332  -12.5383    8.3584 C   0  0  0  0  0  0  0  0  0 17
   12.8397  -14.4505    7.9777 C   0  0  0  0  0  0  0  0  0 18
   11.9489  -13.7563    8.7932 C   0  0  0  0  0  0  0  0  0 19
   13.4059  -13.0954    3.8840 C   0  0  0  0  0  0  0  0  0 20
   12.5408  -14.1360    3.5063 C   0  0  0  0  0  0  0  0  0 21
   14.6421  -13.0063    3.2228 C   0  0  0  0  0  0  0  0  0 22
   12.8941  -15.0536    2.5234 C   0  0  0  0  0  0  0  0  0 23
   15.0110  -13.9196    2.2548 C   0  0  0  0  0  0  0  0  0 24
   14.1489  -14.9727    1.8979 C   0  0  0  0  0  0  0  0  0 25
   14.6474  -15.9490    0.9966 C   0  0  0  0  0  0  0  0  0 26
   15.2569  -16.7336    0.2988 C   0  0  0  0  0  0  0  0  0 27
   16.1263  -17.6190   -0.3524 C   0  0  0  0  0  0  0  0  0 28
   17.8270  -17.5141    0.0382 S   0  0  0  0  0  0  0  0  0 29
   15.8954  -18.6512   -1.2424 C   0  0  0  0  0  0  0  0  0 30
   18.2057  -18.8752   -0.9823 C   0  0  0  0  0  0  0  0  0 31
   17.0609  -19.3585   -1.5879 C   0  0  0  0  0  0  0  0  0 32
   22.5090  -21.8315   -1.6397 C   0  0  0  0  0  0  0  0  0 33
   23.7342  -22.1706   -1.1315 C   0  0  0  0  0  0  0  0  0 34
   24.5445  -23.0579   -1.8950 C   0  0  0  0  0  0  0  0  0 35
   24.3581  -21.7376    0.1442 C   0  0  0  0  0  0  0  0  0 36
   25.5611  -21.7568    0.3160 O   0  0  0  0  0  0  0  0  0 37
   23.5513  -21.3664    1.1592 O   0  0  0  0  0  0  0  0  0 38
   12.9411   -8.2111   -0.4164 C   0  0  0  0  0  0  0  0  0 39
   12.9848   -8.8543    0.8127 C   0  0  0  0  0  0  0  0  0 40
   13.3909   -6.8978   -0.5436 C   0  0  0  0  0  0  0  0  0 41
   13.4893   -8.2045    1.9508 C   0  0  0  0  0  0  0  0  0 42
   13.8843   -6.2399    0.5793 C   0  0  0  0  0  0  0  0  0 43
   13.9310   -6.8820    1.8133 C   0  0  0  0  0  0  0  0  0 44
   14.2832   -7.5457    6.5737 C   0  0  0  0  0  0  0  0  0 45
   14.2367   -7.8317    7.9473 C   0  0  0  0  0  0  0  0  0 46
   14.7834   -6.2987    6.1726 C   0  0  0  0  0  0  0  0  0 47
   14.6902   -6.9144    8.8834 C   0  0  0  0  0  0  0  0  0 48
   15.2333   -5.3790    7.1150 C   0  0  0  0  0  0  0  0  0 49
   15.1877   -5.6781    8.4731 C   0  0  0  0  0  0  0  0  0 50
   20.7097  -17.7907   -0.0960 H   0  0  0  0  0  0  0  0  0 51
   22.8201  -19.2456   -0.3293 H   0  0  0  0  0  0  0  0  0 52
   13.1747  -10.8392    2.6011 H   0  0  0  0  0  0  0  0  0 53
   13.6018  -10.1765    6.8497 H   0  0  0  0  0  0  0  0  0 54
   11.3685  -11.0963    6.7841 H   0  0  0  0  0  0  0  0  0 55
   13.9280  -14.4799    6.1350 H   0  0  0  0  0  0  0  0  0 56
   10.7219  -11.9976    8.9707 H   0  0  0  0  0  0  0  0  0 57
   13.2469  -15.3990    8.3072 H   0  0  0  0  0  0  0  0  0 58
   11.6546  -14.1664    9.7510 H   0  0  0  0  0  0  0  0  0 59
   11.5775  -14.2313    3.9921 H   0  0  0  0  0  0  0  0  0 60
   15.3362  -12.2257    3.5024 H   0  0  0  0  0  0  0  0  0 61
   12.2118  -15.8503    2.2576 H   0  0  0  0  0  0  0  0  0 62
   15.9836  -13.8490    1.7870 H   0  0  0  0  0  0  0  0  0 63
   14.9115  -18.8830   -1.6217 H   0  0  0  0  0  0  0  0  0 64
   17.0622  -20.1987   -2.2677 H   0  0  0  0  0  0  0  0  0 65
   22.1914  -22.4083   -2.5017 H   0  0  0  0  0  0  0  0  0 66
   22.6120  -21.4891    0.9439 H   0  0  0  0  0  0  0  0  0 67
   12.5481   -8.7372   -1.2778 H   0  0  0  0  0  0  0  0  0 68
   12.6080   -9.8654    0.8834 H   0  0  0  0  0  0  0  0  0 69
   13.3517   -6.3969   -1.5021 H   0  0  0  0  0  0  0  0  0 70
   14.2336   -5.2176    0.4988 H   0  0  0  0  0  0  0  0  0 71
   14.3211   -6.3537    2.6706 H   0  0  0  0  0  0  0  0  0 72
   13.8420   -8.7744    8.2990 H   0  0  0  0  0  0  0  0  0 73
   14.8356   -6.0529    5.1226 H   0  0  0  0  0  0  0  0  0 74
   14.6528   -7.1638    9.9364 H   0  0  0  0  0  0  0  0  0 75
   15.6275   -4.4269    6.7806 H   0  0  0  0  0  0  0  0  0 76
   15.5396   -4.9602    9.2031 H   0  0  0  0  0  0  0  0  0 77
  1  2  1  0  0  0
  1  3  2  0  0  0
  2  4  1  0  0  0
  3  5  1  0  0  0
  4  5  2  0  0  0
  8  9  2  0  0  0
  8 10  1  0  0  0
  9 11  1  0  0  0
 10 12  1  0  0  0
 11 13  1  0  0  0
 12 13  2  0  0  0
  7 11  2  0  0  0
 14 15  1  0  0  0
 14 16  2  0  0  0
 15 17  2  0  0  0
 16 18  1  0  0  0
 17 19  1  0  0  0
 18 19  2  0  0  0
  7 14  1  0  0  0
 20 21  1  0  0  0
 20 22  2  0  0  0
 21 23  2  0  0  0
 22 24  1  0  0  0
 23 25  1  0  0  0
 24 25  2  0  0  0
  7 20  1  0  0  0
 25 26  1  0  0  0
 26 27  3  0  0  0
 28 29  1  0  0  0
 28 30  2  0  0  0
 29 31  1  0  0  0
 30 32  1  0  0  0
 31 32  2  0  0  0
 27 28  1  0  0  0
 33 34  2  0  0  0
 34 35  1  0  0  0
 34 36  1  0  0  0
  6 35  3  0  0  0
 36 37  2  0  0  0
 36 38  1  0  0  0
  1 31  1  0  0  0
  4 33  1  0  0  0
 39 40  1  0  0  0
 39 41  2  0  0  0
 40 42  2  0  0  0
 41 43  1  0  0  0
 42 44  1  0  0  0
 43 44  2  0  0  0
 45 46  1  0  0  0
 45 47  2  0  0  0
 46 48  2  0  0  0
 47 49  1  0  0  0
 48 50  1  0  0  0
 49 50  2  0  0  0
  8 42  1  0  0  0
 45 12  1  0  0  0
  3 51  1  0  0  0
  5 52  1  0  0  0
  9 53  1  0  0  0
 13 54  1  0  0  0
 15 55  1  0  0  0
 16 56  1  0  0  0
 17 57  1  0  0  0
 18 58  1  0  0  0
 19 59  1  0  0  0
 21 60  1  0  0  0
 22 61  1  0  0  0
 23 62  1  0  0  0
 24 63  1  0  0  0
 30 64  1  0  0  0
 32 65  1  0  0  0
 33 66  1  0  0  0
 38 67  1  0  0  0
 39 68  1  0  0  0
 40 69  1  0  0  0
 41 70  1  0  0  0
 43 71  1  0  0  0
 44 72  1  0  0  0
 46 73  1  0  0  0
 47 74  1  0  0  0
 48 75  1  0  0  0
 49 76  1  0  0  0
 50 77  1  0  0  0
M  END
