22a-28522
  MatStudio         3D                             0

 84 91  0  0  0  0  0  0  0  0999 V2000
   20.7938  -23.7364    0.1608 C   0  0  0  0  0  0  0  0  0  1
   22.0455  -24.2697    1.2427 S   0  0  0  0  0  0  0  0  0  2
   21.0897  -24.0843   -1.1536 C   0  0  0  0  0  0  0  0  0  3
   22.9510  -24.9966   -0.0727 C   0  0  0  0  0  0  0  0  0  4
   22.2825  -24.7919   -1.2792 C   0  0  0  0  0  0  0  0  0  5
   20.4427  -23.8507   -1.9864 H   0  0  0  0  0  0  0  0  0  6
   22.6734  -25.1587   -2.2175 H   0  0  0  0  0  0  0  0  0  7
   17.6693  -21.4985    0.8787 C   0  0  0  0  0  0  0  0  0  8
   18.6175  -22.1343   -0.4355 S   0  0  0  0  0  0  0  0  0  9
   18.1536  -21.9555    2.0896 C   0  0  0  0  0  0  0  0  0 10
   19.6614  -23.0093    0.6576 C   0  0  0  0  0  0  0  0  0 11
   19.2670  -22.8004    1.9673 C   0  0  0  0  0  0  0  0  0 12
   24.4746  -25.1509    3.4990 N   0  0  0  0  0  0  0  0  0 13
   13.4152  -11.4884    4.5558 C   0  0  0  0  0  0  0  0  0 14
   11.0538   -9.2290    2.7884 C   0  0  0  0  0  0  0  0  0 15
   11.6752  -10.3567    3.1901 C   0  0  0  0  0  0  0  0  0 16
   11.4838   -7.9859    3.2085 O   0  0  0  0  0  0  0  0  0 17
   12.7625  -10.3488    4.1448 C   0  0  0  0  0  0  0  0  0 18
   12.5359   -7.9129    4.1009 C   0  0  0  0  0  0  0  0  0 19
   13.1156   -9.0218    4.5987 C   0  0  0  0  0  0  0  0  0 20
   14.3868  -11.4771    5.6811 C   0  0  0  0  0  0  0  0  0 21
   14.0455  -10.9904    6.9510 C   0  0  0  0  0  0  0  0  0 22
   15.6844  -11.9810    5.4991 C   0  0  0  0  0  0  0  0  0 23
   14.9683  -10.9959    7.9934 C   0  0  0  0  0  0  0  0  0 24
   16.6093  -11.9795    6.5365 C   0  0  0  0  0  0  0  0  0 25
   16.2548  -11.4886    7.7915 C   0  0  0  0  0  0  0  0  0 26
   13.3242  -12.7672    3.8088 C   0  0  0  0  0  0  0  0  0 27
   13.1022  -13.9921    4.4616 C   0  0  0  0  0  0  0  0  0 28
   13.6010  -12.8080    2.4327 C   0  0  0  0  0  0  0  0  0 29
   13.2287  -15.1989    3.7902 C   0  0  0  0  0  0  0  0  0 30
   13.7478  -14.0086    1.7550 C   0  0  0  0  0  0  0  0  0 31
   13.5932  -15.2292    2.4311 C   0  0  0  0  0  0  0  0  0 32
   13.9315  -16.4574    1.8040 C   0  0  0  0  0  0  0  0  0 33
   14.3458  -17.4855    1.3093 C   0  0  0  0  0  0  0  0  0 34
   15.0021  -18.6307    0.8315 C   0  0  0  0  0  0  0  0  0 35
   16.0184  -19.5365    1.9300 S   0  0  0  0  0  0  0  0  0 36
   15.1195  -19.1233   -0.4538 C   0  0  0  0  0  0  0  0  0 37
   16.6171  -20.5437    0.6406 C   0  0  0  0  0  0  0  0  0 38
   16.0302  -20.1902   -0.5581 C   0  0  0  0  0  0  0  0  0 39
   24.1822  -25.6756    0.0277 C   0  0  0  0  0  0  0  0  0 40
   25.0072  -25.9161    1.0992 C   0  0  0  0  0  0  0  0  0 41
   24.7030  -25.4867    2.4121 C   0  0  0  0  0  0  0  0  0 42
   26.2693  -26.6524    0.8689 C   0  0  0  0  0  0  0  0  0 43
   26.6174  -27.0705   -0.2202 O   0  0  0  0  0  0  0  0  0 44
   27.0744  -26.8590    1.9362 O   0  0  0  0  0  0  0  0  0 45
    8.3152   -7.8589    0.5745 C   0  0  0  0  0  0  0  0  0 46
    9.4019   -7.9209    1.4420 C   0  0  0  0  0  0  0  0  0 47
    7.6925   -9.0236    0.1393 C   0  0  0  0  0  0  0  0  0 48
    9.8907   -9.1564    1.8880 C   0  0  0  0  0  0  0  0  0 49
    8.1657  -10.2580    0.5812 C   0  0  0  0  0  0  0  0  0 50
    9.2450  -10.3239    1.4500 C   0  0  0  0  0  0  0  0  0 51
   12.9312   -6.5304    4.3973 C   0  0  0  0  0  0  0  0  0 52
   12.0860   -5.4574    4.0804 C   0  0  0  0  0  0  0  0  0 53
   14.1784   -6.2480    4.9748 C   0  0  0  0  0  0  0  0  0 54
   12.4748   -4.1490    4.3455 C   0  0  0  0  0  0  0  0  0 55
   14.5613   -4.9411    5.2393 C   0  0  0  0  0  0  0  0  0 56
   13.7118   -3.8814    4.9234 C   0  0  0  0  0  0  0  0  0 57
   17.7114  -21.6906    3.0393 H   0  0  0  0  0  0  0  0  0 58
   19.7715  -23.2438    2.8144 H   0  0  0  0  0  0  0  0  0 59
   11.3156  -11.3008    2.8165 H   0  0  0  0  0  0  0  0  0 60
   13.9169   -8.8999    5.3075 H   0  0  0  0  0  0  0  0  0 61
   13.0440  -10.6174    7.1240 H   0  0  0  0  0  0  0  0  0 62
   15.9712  -12.3732    4.5314 H   0  0  0  0  0  0  0  0  0 63
   14.6777  -10.6187    8.9664 H   0  0  0  0  0  0  0  0  0 64
   17.6059  -12.3681    6.3665 H   0  0  0  0  0  0  0  0  0 65
   16.9708  -11.4925    8.6039 H   0  0  0  0  0  0  0  0  0 66
   12.8703  -13.9987    5.5190 H   0  0  0  0  0  0  0  0  0 67
   13.7770  -11.8820    1.9006 H   0  0  0  0  0  0  0  0  0 68
   13.0847  -16.1307    4.3231 H   0  0  0  0  0  0  0  0  0 69
   14.0224  -14.0092    0.7092 H   0  0  0  0  0  0  0  0  0 70
   14.5828  -18.7014   -1.2896 H   0  0  0  0  0  0  0  0  0 71
   16.2498  -20.6892   -1.4913 H   0  0  0  0  0  0  0  0  0 72
   24.5511  -26.0676   -0.9134 H   0  0  0  0  0  0  0  0  0 73
   26.7121  -26.4774    2.7523 H   0  0  0  0  0  0  0  0  0 74
    7.9571   -6.8942    0.2373 H   0  0  0  0  0  0  0  0  0 75
    9.8798   -7.0074    1.7626 H   0  0  0  0  0  0  0  0  0 76
    6.8452   -8.9728   -0.5328 H   0  0  0  0  0  0  0  0  0 77
    7.6861  -11.1727    0.2566 H   0  0  0  0  0  0  0  0  0 78
    9.5762  -11.2951    1.7900 H   0  0  0  0  0  0  0  0  0 79
   11.1238   -5.6456    3.6271 H   0  0  0  0  0  0  0  0  0 80
   14.8686   -7.0492    5.1982 H   0  0  0  0  0  0  0  0  0 81
   11.8083   -3.3346    4.0907 H   0  0  0  0  0  0  0  0  0 82
   15.5321   -4.7497    5.6783 H   0  0  0  0  0  0  0  0  0 83
   14.0156   -2.8607    5.1170 H   0  0  0  0  0  0  0  0  0 84
  1  2  1  0  0  0
  1  3  2  0  0  0
  2  4  1  0  0  0
  3  5  1  0  0  0
  4  5  2  0  0  0
  3  6  1  0  0  0
  5  7  1  0  0  0
  8  9  1  0  0  0
  8 10  2  0  0  0
  9 11  1  0  0  0
 10 12  1  0  0  0
 11 12  2  0  0  0
 15 16  2  0  0  0
 15 17  1  0  0  0
 16 18  1  0  0  0
 17 19  1  0  0  0
 18 20  1  0  0  0
 19 20  2  0  0  0
 14 18  2  0  0  0
 21 22  1  0  0  0
 21 23  2  0  0  0
 22 24  2  0  0  0
 23 25  1  0  0  0
 24 26  1  0  0  0
 25 26  2  0  0  0
 14 21  1  0  0  0
 27 28  1  0  0  0
 27 29  2  0  0  0
 28 30  2  0  0  0
 29 31  1  0  0  0
 30 32  1  0  0  0
 31 32  2  0  0  0
 14 27  1  0  0  0
 32 33  1  0  0  0
 33 34  3  0  0  0
 35 36  1  0  0  0
 35 37  2  0  0  0
 36 38  1  0  0  0
 37 39  1  0  0  0
 38 39  2  0  0  0
 34 35  1  0  0  0
 40 41  2  0  0  0
 41 42  1  0  0  0
 41 43  1  0  0  0
 13 42  3  0  0  0
 43 44  2  0  0  0
 43 45  1  0  0  0
  8 38  1  0  0  0
 46 47  1  0  0  0
 46 48  2  0  0  0
 47 49  2  0  0  0
 48 50  1  0  0  0
 49 51  1  0  0  0
 50 51  2  0  0  0
 52 53  1  0  0  0
 52 54  2  0  0  0
 53 55  2  0  0  0
 54 56  1  0  0  0
 55 57  1  0  0  0
 56 57  2  0  0  0
 15 49  1  0  0  0
 52 19  1  0  0  0
 10 58  1  0  0  0
 12 59  1  0  0  0
 16 60  1  0  0  0
 20 61  1  0  0  0
 22 62  1  0  0  0
 23 63  1  0  0  0
 24 64  1  0  0  0
 25 65  1  0  0  0
 26 66  1  0  0  0
 28 67  1  0  0  0
 29 68  1  0  0  0
 30 69  1  0  0  0
 31 70  1  0  0  0
 37 71  1  0  0  0
 39 72  1  0  0  0
 40 73  1  0  0  0
 45 74  1  0  0  0
 46 75  1  0  0  0
 47 76  1  0  0  0
 48 77  1  0  0  0
 50 78  1  0  0  0
 51 79  1  0  0  0
 53 80  1  0  0  0
 54 81  1  0  0  0
 55 82  1  0  0  0
 56 83  1  0  0  0
 57 84  1  0  0  0
  1 11  1  0  0  0
 40  4  1  0  0  0
M  END
