D3-2508
  MatStudio         3D                             0

 46 49  0  0  0  0  0  0  0  0999 V2000
   23.3432  -15.6987    5.6119 N   0  0  0  0  0  0  0  0  0  1
   19.2815  -16.6364    3.1424 O   0  0  0  0  0  0  0  0  0  2
   19.7088  -17.9282    2.7369 C   0  0  0  0  0  0  0  0  0  3
   20.3337  -11.6375    0.2865 O   0  0  0  0  0  0  0  0  0  4
   22.7054  -11.7624    1.5771 O   0  0  0  0  0  0  0  0  0  5
   16.8449  -17.4860   -5.0745 O   0  0  0  0  0  0  0  0  0  6
   20.6240  -17.8779    1.6460 O   0  0  0  0  0  0  0  0  0  7
   19.2503  -19.8875    0.3399 O   0  0  0  0  0  0  0  0  0  8
   18.8445  -17.1909   -2.0345 C   0  0  0  0  0  0  0  0  0  9
   18.6947  -18.4624   -1.4817 C   0  0  0  0  0  0  0  0  0 10
   18.2554  -16.8313   -3.2399 C   0  0  0  0  0  0  0  0  0 11
   17.9083  -19.3911   -2.1858 C   0  0  0  0  0  0  0  0  0 12
   17.4781  -17.7662   -3.9021 C   0  0  0  0  0  0  0  0  0 13
   17.3070  -19.0595   -3.3769 C   0  0  0  0  0  0  0  0  0 14
   20.1686  -16.4533   -0.2016 C   0  0  0  0  0  0  0  0  0 15
   20.0384  -17.6611    0.4111 C   0  0  0  0  0  0  0  0  0 16
   19.5939  -16.2252   -1.4204 O   0  0  0  0  0  0  0  0  0 17
   19.3259  -18.7727   -0.2043 C   0  0  0  0  0  0  0  0  0 18
   20.8660  -15.2631    0.2953 C   0  0  0  0  0  0  0  0  0 19
   22.0863  -15.3471    0.9700 C   0  0  0  0  0  0  0  0  0 20
   20.3016  -14.0022    0.0559 C   0  0  0  0  0  0  0  0  0 21
   22.7248  -14.1905    1.3965 C   0  0  0  0  0  0  0  0  0 22
   20.9245  -12.8548    0.5051 C   0  0  0  0  0  0  0  0  0 23
   22.1522  -12.9480    1.1732 C   0  0  0  0  0  0  0  0  0 24
   20.1177  -15.8535    3.8961 C   0  0  0  0  0  0  0  0  0 25
   21.3743  -16.2326    4.3254 C   0  0  0  0  0  0  0  0  0 26
   19.6257  -14.5933    4.2468 C   0  0  0  0  0  0  0  0  0 27
   22.1075  -15.3327    5.1150 C   0  0  0  0  0  0  0  0  0 28
   20.4319  -13.7823    5.0177 C   0  0  0  0  0  0  0  0  0 29
   21.6517  -14.1222    5.4597 N   0  0  0  0  0  0  0  0  0 30
   23.9276  -14.9198    5.8805 H   0  0  0  0  0  0  0  0  0 31
   23.8405  -16.4072    5.0933 H   0  0  0  0  0  0  0  0  0 32
   20.2267  -18.4443    3.5398 H   0  0  0  0  0  0  0  0  0 33
   18.8023  -18.4538    2.4560 H   0  0  0  0  0  0  0  0  0 34
   20.8986  -10.9448    0.6601 H   0  0  0  0  0  0  0  0  0 35
   23.5399  -11.9207    2.0399 H   0  0  0  0  0  0  0  0  0 36
   17.0068  -16.5667   -5.3309 H   0  0  0  0  0  0  0  0  0 37
   18.3941  -15.8331   -3.6323 H   0  0  0  0  0  0  0  0  0 38
   17.7842  -20.3787   -1.7644 H   0  0  0  0  0  0  0  0  0 39
   16.6962  -19.7710   -3.9147 H   0  0  0  0  0  0  0  0  0 40
   22.5478  -16.3055    1.1476 H   0  0  0  0  0  0  0  0  0 41
   19.3570  -13.9087   -0.4602 H   0  0  0  0  0  0  0  0  0 42
   23.6769  -14.2500    1.9085 H   0  0  0  0  0  0  0  0  0 43
   21.8188  -17.1780    4.0562 H   0  0  0  0  0  0  0  0  0 44
   18.6509  -14.2701    3.9132 H   0  0  0  0  0  0  0  0  0 45
   20.0831  -12.7945    5.2975 H   0  0  0  0  0  0  0  0  0 46
  9 11  2  0  0  0
 10 12  2  0  0  0
 11 13  1  0  0  0
 12 14  1  0  0  0
 13 14  2  0  0  0
 15 16  2  0  0  0
 15 17  1  0  0  0
 16 18  1  0  0  0
 17  9  1  0  0  0
 18 10  1  0  0  0
  9 10  1  0  0  0
 19 20  1  0  0  0
 19 21  2  0  0  0
 20 22  2  0  0  0
 21 23  1  0  0  0
 22 24  1  0  0  0
 23 24  2  0  0  0
 15 19  1  0  0  0
  8 18  2  0  0  0
  7 16  1  0  0  0
  6 13  1  0  0  0
  5 24  1  0  0  0
  4 23  1  0  0  0
  3  7  1  0  0  0
  2  3  1  0  0  0
 25 26  1  0  0  0
 25 27  2  0  0  0
 26 28  2  0  0  0
 27 29  1  0  0  0
 28 30  1  0  0  0
 29 30  2  0  0  0
  2 25  1  0  0  0
  1 28  1  0  0  0
  1 31  1  0  0  0
  1 32  1  0  0  0
  3 33  1  0  0  0
  3 34  1  0  0  0
  4 35  1  0  0  0
  5 36  1  0  0  0
  6 37  1  0  0  0
 11 38  1  0  0  0
 12 39  1  0  0  0
 14 40  1  0  0  0
 20 41  1  0  0  0
 21 42  1  0  0  0
 22 43  1  0  0  0
 26 44  1  0  0  0
 27 45  1  0  0  0
 29 46  1  0  0  0
M  END
