T2-simp-25897
  MatStudio         3D                             0

 46 47  0  0  0  0  0  0  0  0999 V2000
   18.7158  -15.1281   -2.6280 C   0  0  0  0  0  0  0  0  0  1
   19.0079  -13.8397   -2.0214 O   0  0  0  0  0  0  0  0  0  2
   17.8264  -14.8492   -3.8207 C   0  0  0  0  0  0  0  0  0  3
   18.2173  -15.7655   -1.9011 H   0  0  0  0  0  0  0  0  0  4
   19.6469  -15.6009   -2.9341 H   0  0  0  0  0  0  0  0  0  5
   16.8903  -14.3830   -3.5090 H   0  0  0  0  0  0  0  0  0  6
   17.5933  -15.7908   -4.3220 H   0  0  0  0  0  0  0  0  0  7
   21.0430  -16.9844    0.1896 C   0  0  0  0  0  0  0  0  0  8
   20.2686  -15.9715   -0.5060 O   0  0  0  0  0  0  0  0  0  9
   20.9363  -11.9362    0.4002 C   0  0  0  0  0  0  0  0  0 10
   21.4485  -12.9489    1.2297 C   0  0  0  0  0  0  0  0  0 11
   20.1335  -12.3310   -0.6835 C   0  0  0  0  0  0  0  0  0 12
   21.2227  -14.2817    0.9382 C   0  0  0  0  0  0  0  0  0 13
   19.8653  -13.6622   -0.9721 C   0  0  0  0  0  0  0  0  0 14
   20.4661  -14.6711   -0.1715 C   0  0  0  0  0  0  0  0  0 15
   20.7907  -18.3225   -0.4712 C   0  0  0  0  0  0  0  0  0 16
   21.3349  -10.5871    0.7076 C   0  0  0  0  0  0  0  0  0 17
   21.2724   -9.4297   -0.0191 C   0  0  0  0  0  0  0  0  0 18
   20.6950   -9.3852   -1.3234 C   0  0  0  0  0  0  0  0  0 19
   20.2464   -9.2842   -2.3864 N   0  0  0  0  0  0  0  0  0 20
   21.8665   -8.1861    0.4637 C   0  0  0  0  0  0  0  0  0 21
   22.0805   -6.8342   -0.5909 S   0  0  0  0  0  0  0  0  0 22
   22.3908   -7.9126    1.7232 C   0  0  0  0  0  0  0  0  0 23
   22.9424   -5.9213    0.6333 C   0  0  0  0  0  0  0  0  0 24
   22.9992   -6.6616    1.8124 C   0  0  0  0  0  0  0  0  0 25
   23.4670   -4.6516    0.2797 C   0  0  0  0  0  0  0  0  0 26
   20.7403  -17.0048    1.2382 H   0  0  0  0  0  0  0  0  0 27
   22.0983  -16.7134    0.1301 H   0  0  0  0  0  0  0  0  0 28
   22.0505  -12.6874    2.0895 H   0  0  0  0  0  0  0  0  0 29
   19.6726  -11.6021   -1.3308 H   0  0  0  0  0  0  0  0  0 30
   21.6514  -15.0353    1.5797 H   0  0  0  0  0  0  0  0  0 31
   21.0980  -18.3050   -1.5177 H   0  0  0  0  0  0  0  0  0 32
   19.7359  -18.5949   -0.4148 H   0  0  0  0  0  0  0  0  0 33
   21.8362  -10.4975    1.6616 H   0  0  0  0  0  0  0  0  0 34
   22.3513   -8.6045    2.5507 H   0  0  0  0  0  0  0  0  0 35
   23.4686   -6.3044    2.7144 H   0  0  0  0  0  0  0  0  0 36
   23.2047   -4.2928   -0.7072 H   0  0  0  0  0  0  0  0  0 37
   24.2895   -3.8156    0.9921 C   0  0  0  0  0  0  0  0  0 38
   24.7608   -4.1226    2.2959 C   0  0  0  0  0  0  0  0  0 39
   24.7797   -2.5362    0.4537 C   0  0  0  0  0  0  0  0  0 40
   25.5136   -1.7833    1.0743 O   0  0  0  0  0  0  0  0  0 41
   24.3526   -2.2692   -0.7971 O   0  0  0  0  0  0  0  0  0 42
   25.1373   -4.3973    3.3562 N   0  0  0  0  0  0  0  0  0 43
   24.7364   -1.4154   -1.0612 H   0  0  0  0  0  0  0  0  0 44
   18.3261  -14.1936   -4.5355 H   0  0  0  0  0  0  0  0  0 45
   21.3721  -19.0874    0.0466 H   0  0  0  0  0  0  0  0  0 46
  1  2  1  0  0  0
  1  3  1  0  0  0
  1  4  1  0  0  0
  1  5  1  0  0  0
  3  6  1  0  0  0
  3  7  1  0  0  0
 10 11  1  0  0  0
 10 12  2  0  0  0
 11 13  2  0  0  0
 12 14  1  0  0  0
 13 15  1  0  0  0
 14 15  2  0  0  0
  9 15  1  0  0  0
  8  9  1  0  0  0
  8 16  1  0  0  0
 10 17  1  0  0  0
 17 18  2  0  0  0
 18 19  1  0  0  0
 19 20  3  0  0  0
 21 22  1  0  0  0
 21 23  2  0  0  0
 22 24  1  0  0  0
 23 25  1  0  0  0
 24 25  2  0  0  0
 18 21  1  0  0  0
 24 26  1  0  0  0
  8 27  1  0  0  0
  8 28  1  0  0  0
 11 29  1  0  0  0
 12 30  1  0  0  0
 13 31  1  0  0  0
 16 32  1  0  0  0
 16 33  1  0  0  0
 17 34  1  0  0  0
 23 35  1  0  0  0
 25 36  1  0  0  0
 26 37  1  0  0  0
 14  2  1  0  0  0
 26 38  2  0  0  0
 38 39  1  0  0  0
 38 40  1  0  0  0
 40 41  2  0  0  0
 40 42  1  0  0  0
 39 43  3  0  0  0
 42 44  1  0  0  0
  3 45  1  0  0  0
 16 46  1  0  0  0
M  END
