T3-simp-33665
  MatStudio         3D                             0

 43 45  0  0  0  0  0  0  0  0999 V2000
   29.9113  -10.0499    1.8045 O   0  0  0  0  0  0  0  0  0  1
   28.6627   -6.2831   -0.8415 O   0  0  0  0  0  0  0  0  0  2
   20.1792  -16.6989   -5.7776 C   0  0  0  0  0  0  0  0  0  3
   20.6073  -15.3123   -5.8937 O   0  0  0  0  0  0  0  0  0  4
   23.3233  -13.4350   -3.3427 C   0  0  0  0  0  0  0  0  0  5
   22.8869  -14.7427   -3.0583 C   0  0  0  0  0  0  0  0  0  6
   22.8398  -12.8375   -4.5287 C   0  0  0  0  0  0  0  0  0  7
   22.0114  -15.4155   -3.8909 C   0  0  0  0  0  0  0  0  0  8
   21.9547  -13.4915   -5.3557 C   0  0  0  0  0  0  0  0  0  9
   21.5147  -14.7848   -5.0401 C   0  0  0  0  0  0  0  0  0 10
   21.0708  -17.6118   -6.5894 C   0  0  0  0  0  0  0  0  0 11
   24.2401  -12.6698   -2.5429 C   0  0  0  0  0  0  0  0  0 12
   24.7824  -12.8905   -1.3057 C   0  0  0  0  0  0  0  0  0 13
   24.4408  -14.0236   -0.5080 C   0  0  0  0  0  0  0  0  0 14
   24.2026  -14.9108    0.1976 N   0  0  0  0  0  0  0  0  0 15
   25.7504  -11.9893   -0.6886 C   0  0  0  0  0  0  0  0  0 16
   26.1382  -10.4416   -1.3394 S   0  0  0  0  0  0  0  0  0 17
   26.5056  -12.2403    0.4555 C   0  0  0  0  0  0  0  0  0 18
   27.3689  -10.1476   -0.1130 C   0  0  0  0  0  0  0  0  0 19
   27.4093  -11.2230    0.7718 C   0  0  0  0  0  0  0  0  0 20
   28.0260   -8.8999   -0.2182 C   0  0  0  0  0  0  0  0  0 21
   29.1181   -8.3024    0.3710 C   0  0  0  0  0  0  0  0  0 22
   29.3862   -6.9245   -0.0815 C   0  0  0  0  0  0  0  0  0 23
   30.0354   -8.9266    1.3213 C   0  0  0  0  0  0  0  0  0 24
   30.5426   -6.3351    0.4022 N   0  0  0  0  0  0  0  0  0 25
   31.1452   -8.1651    1.6832 N   0  0  0  0  0  0  0  0  0 26
   31.4598   -6.8977    1.2588 C   0  0  0  0  0  0  0  0  0 27
   32.4728   -6.3116    1.6190 O   0  0  0  0  0  0  0  0  0 28
   19.1654  -16.6897   -6.1748 H   0  0  0  0  0  0  0  0  0 29
   20.1291  -16.9893   -4.7301 H   0  0  0  0  0  0  0  0  0 30
   23.2486  -15.2686   -2.1892 H   0  0  0  0  0  0  0  0  0 31
   23.1596  -11.8339   -4.7800 H   0  0  0  0  0  0  0  0  0 32
   21.7276  -16.4258   -3.6395 H   0  0  0  0  0  0  0  0  0 33
   21.5711  -13.0139   -6.2469 H   0  0  0  0  0  0  0  0  0 34
   22.0966  -17.6145   -6.2167 H   0  0  0  0  0  0  0  0  0 35
   21.0778  -17.3088   -7.6377 H   0  0  0  0  0  0  0  0  0 36
   24.5672  -11.7564   -3.0264 H   0  0  0  0  0  0  0  0  0 37
   26.4047  -13.1469    1.0339 H   0  0  0  0  0  0  0  0  0 38
   28.0872  -11.2496    1.6074 H   0  0  0  0  0  0  0  0  0 39
   27.5775   -8.2455   -0.9584 H   0  0  0  0  0  0  0  0  0 40
   30.7394   -5.3926    0.0903 H   0  0  0  0  0  0  0  0  0 41
   31.8074   -8.6028    2.3115 H   0  0  0  0  0  0  0  0  0 42
   20.6864  -18.6331   -6.5318 H   0  0  0  0  0  0  0  0  0 43
  5  6  1  0  0  0
  5  7  2  0  0  0
  6  8  2  0  0  0
  7  9  1  0  0  0
  8 10  1  0  0  0
  9 10  2  0  0  0
  4 10  1  0  0  0
  3  4  1  0  0  0
  3 11  1  0  0  0
  5 12  1  0  0  0
 12 13  2  0  0  0
 13 14  1  0  0  0
 14 15  3  0  0  0
 16 17  1  0  0  0
 16 18  2  0  0  0
 17 19  1  0  0  0
 18 20  1  0  0  0
 19 20  2  0  0  0
 13 16  1  0  0  0
 19 21  1  0  0  0
 22 23  1  0  0  0
 22 24  1  0  0  0
 23 25  1  0  0  0
 24 26  1  0  0  0
 25 27  1  0  0  0
 26 27  1  0  0  0
 21 22  2  0  0  0
  2 23  2  0  0  0
  1 24  2  0  0  0
 27 28  2  0  0  0
  3 29  1  0  0  0
  3 30  1  0  0  0
  6 31  1  0  0  0
  7 32  1  0  0  0
  8 33  1  0  0  0
  9 34  1  0  0  0
 11 35  1  0  0  0
 11 36  1  0  0  0
 12 37  1  0  0  0
 18 38  1  0  0  0
 20 39  1  0  0  0
 21 40  1  0  0  0
 25 41  1  0  0  0
 26 42  1  0  0  0
 11 43  1  0  0  0
M  END
