C7AD-(BTD)2-(CNCOOH)2-19699
  MatStudio         3D                             0

 98107  0  0  0  0  0  0  0  0999 V2000
   -0.2516    5.2521    9.2431 C   0  0  0  0  0  0  0  0  0  1
   -0.4441    5.1101    7.8516 C   0  0  0  0  0  0  0  0  0  2
    0.4922    4.3691    7.0692 C   0  0  0  0  0  0  0  0  0  3
    1.5890    3.7796    7.7502 C   0  0  0  0  0  0  0  0  0  4
    1.7695    3.9226    9.1145 C   0  0  0  0  0  0  0  0  0  5
    0.8400    4.6664    9.8663 C   0  0  0  0  0  0  0  0  0  6
    0.2603    4.1700    5.6508 C   0  0  0  0  0  0  0  0  0  7
   -0.8329    4.9000    5.0452 C   0  0  0  0  0  0  0  0  0  8
   -1.7719    5.5949    5.8651 C   0  0  0  0  0  0  0  0  0  9
   -1.5712    5.6613    7.2432 N   0  3  0  0  0  0  0  0  0 10
   -2.8873    6.2317    5.2794 C   0  0  0  0  0  0  0  0  0 11
   -3.0374    6.2574    3.9002 C   0  0  0  0  0  0  0  0  0 12
   -2.0602    5.6819    3.0681 C   0  0  0  0  0  0  0  0  0 13
   -0.9829    5.0262    3.6377 C   0  0  0  0  0  0  0  0  0 14
    1.0960    3.3016    4.9099 C   0  0  0  0  0  0  0  0  0 15
    0.7727    2.5808    3.7563 C   0  0  0  0  0  0  0  0  0 16
    1.7236    1.8770    3.0081 C   0  0  0  0  0  0  0  0  0 17
    1.4217    1.1238    1.8646 C   0  0  0  0  0  0  0  0  0 18
    2.4072    0.6228    1.0133 C   0  0  0  0  0  0  0  0  0 19
    2.1413   -0.1306   -0.1417 C   0  0  0  0  0  0  0  0  0 20
    3.0646   -0.5582   -1.1046 C   0  0  0  0  0  0  0  0  0 21
    3.7624    2.3459   -1.0879 C   0  0  0  0  0  0  0  0  0 22
    4.7351    1.3146   -1.1581 C   0  0  0  0  0  0  0  0  0 23
    6.1071    1.7005   -1.1050 C   0  0  0  0  0  0  0  0  0 24
    6.4525    3.0402   -0.8143 C   0  0  0  0  0  0  0  0  0 25
    5.4645    4.0011   -0.6746 C   0  0  0  0  0  0  0  0  0 26
    4.1077    3.6616   -0.8507 C   0  0  0  0  0  0  0  0  0 27
    7.0945    0.7520   -1.3524 N   0  0  0  0  0  0  0  0  0 28
    6.7768   -0.5205   -1.8245 C   0  0  0  0  0  0  0  0  0 29
    5.4131   -0.9513   -1.8490 C   0  0  0  0  0  0  0  0  0 30
    4.3759   -0.0733   -1.3498 C   0  0  0  0  0  0  0  0  0 31
    5.1503   -2.2694   -2.3055 C   0  0  0  0  0  0  0  0  0 32
    6.1639   -3.1127   -2.7268 C   0  0  0  0  0  0  0  0  0 33
    7.5002   -2.6686   -2.6920 C   0  0  0  0  0  0  0  0  0 34
    7.8045   -1.3954   -2.2353 C   0  0  0  0  0  0  0  0  0 35
   -0.9666    5.8209    9.8356 H   0  0  0  0  0  0  0  0  0 36
    0.9665    4.7746   10.9446 H   0  0  0  0  0  0  0  0  0 37
   -3.6257    6.7275    5.9070 H   0  0  0  0  0  0  0  0  0 38
   -3.9002    6.7622    3.4657 H   0  0  0  0  0  0  0  0  0 39
    2.0964    3.1143    5.3052 H   0  0  0  0  0  0  0  0  0 40
   -0.2667    2.5405    3.4198 H   0  0  0  0  0  0  0  0  0 41
    2.7763    1.9656    3.2985 H   0  0  0  0  0  0  0  0  0 42
    3.4450    0.8659    1.2575 H   0  0  0  0  0  0  0  0  0 43
    1.1184   -0.5061   -0.2559 H   0  0  0  0  0  0  0  0  0 44
    2.7399   -1.4135   -1.7006 H   0  0  0  0  0  0  0  0  0 45
    7.4987    3.3256   -0.7218 H   0  0  0  0  0  0  0  0  0 46
    5.7487    5.0337   -0.4666 H   0  0  0  0  0  0  0  0  0 47
    8.3059   -3.3249   -3.0246 H   0  0  0  0  0  0  0  0  0 48
    8.8411   -1.0643   -2.2098 H   0  0  0  0  0  0  0  0  0 49
    2.3067    3.1834    7.1905 H   0  0  0  0  0  0  0  0  0 50
    2.6216    3.4514    9.6044 H   0  0  0  0  0  0  0  0  0 51
   -2.1337    5.7717    1.9835 H   0  0  0  0  0  0  0  0  0 52
   -0.2056    4.6305    2.9891 H   0  0  0  0  0  0  0  0  0 53
    2.7178    2.0807   -1.2366 H   0  0  0  0  0  0  0  0  0 54
    3.3362    4.4313   -0.8140 H   0  0  0  0  0  0  0  0  0 55
    4.1232   -2.6296   -2.3277 H   0  0  0  0  0  0  0  0  0 56
    5.9269   -4.1165   -3.0823 H   0  0  0  0  0  0  0  0  0 57
    0.3688    0.9715    1.6004 H   0  0  0  0  0  0  0  0  0 58
   -7.0977    8.2958   10.0804 C   0  0  0  0  0  0  0  0  0 59
   -7.9098    9.3298   10.7983 C   0  0  0  0  0  0  0  0  0 60
   -7.4342   10.2841   11.4039 O   0  0  0  0  0  0  0  0  0 61
   -9.2365    9.0829   10.7024 O   0  0  0  0  0  0  0  0  0 62
   -5.7386    8.4622   10.0650 C   0  0  0  0  0  0  0  0  0 63
   -9.7027    9.7951   11.1925 H   0  0  0  0  0  0  0  0  0 64
   -5.4046    9.3932   10.5339 H   0  0  0  0  0  0  0  0  0 65
   -2.5690    6.3168    8.0451 C   0  0  0  0  0  0  0  0  0 66
   -2.5150    7.6746    8.3014 C   0  0  0  0  0  0  0  0  0 67
   -3.5451    8.3257    9.0187 C   0  0  0  0  0  0  0  0  0 68
   -4.6947    7.6646    9.4647 C   0  0  0  0  0  0  0  0  0 69
   -4.7250    6.2434    9.2794 C   0  0  0  0  0  0  0  0  0 70
   -3.6602    5.5713    8.5658 C   0  0  0  0  0  0  0  0  0 71
   -1.6736    8.2605    7.9299 H   0  0  0  0  0  0  0  0  0 72
   -3.4596    9.4000    9.1900 H   0  0  0  0  0  0  0  0  0 73
   -3.8176    4.2330    8.4867 N   0  0  0  0  0  0  0  0  0 74
   -5.1917    3.8957    9.2978 S   0  0  0  0  0  0  0  0  0 75
   -5.6497    5.3888    9.7628 N   0  0  0  0  0  0  0  0  0 76
   -7.8096    7.2853    9.3748 C   0  0  0  0  0  0  0  0  0 77
   -8.4441    6.5172    8.7575 N   0  0  0  0  0  0  0  0  0 78
   13.1100    3.0201    0.7570 C   0  0  0  0  0  0  0  0  0 79
   14.4858    3.5805    0.6011 C   0  0  0  0  0  0  0  0  0 80
   15.1007    3.6164   -0.4597 O   0  0  0  0  0  0  0  0  0 81
   14.9785    4.0465    1.7738 O   0  0  0  0  0  0  0  0  0 82
   12.4658    2.5998   -0.3786 C   0  0  0  0  0  0  0  0  0 83
   15.8748    4.4039    1.5891 H   0  0  0  0  0  0  0  0  0 84
   13.0517    2.7421   -1.2890 H   0  0  0  0  0  0  0  0  0 85
    8.4667    1.1222   -1.1326 C   0  0  0  0  0  0  0  0  0 86
    8.9936    1.1063    0.1494 C   0  0  0  0  0  0  0  0  0 87
   10.2979    1.5718    0.4220 C   0  0  0  0  0  0  0  0  0 88
   11.1434    2.0662   -0.5775 C   0  0  0  0  0  0  0  0  0 89
   10.6248    2.0470   -1.9181 C   0  0  0  0  0  0  0  0  0 90
    9.2836    1.5870   -2.1968 C   0  0  0  0  0  0  0  0  0 91
    8.3723    0.7507    0.9735 H   0  0  0  0  0  0  0  0  0 92
   10.6374    1.5377    1.4554 H   0  0  0  0  0  0  0  0  0 93
    8.9389    1.6730   -3.5003 N   0  0  0  0  0  0  0  0  0 94
   10.2401    2.2846   -4.2688 S   0  0  0  0  0  0  0  0  0 95
   11.2731    2.4724   -3.0219 N   0  0  0  0  0  0  0  0  0 96
   12.5486    3.0103    2.0614 C   0  0  0  0  0  0  0  0  0 97
   12.0979    3.0147    3.1447 N   0  0  0  0  0  0  0  0  0 98
  1  2  1  0  0  0
  1  6  2  0  0  0
  1 36  1  0  0  0
  2  3  1  0  0  0
  2 10  2  0  0  0
  3  4  1  0  0  0
  3  7  2  0  0  0
  4  5  2  0  0  0
  5  6  1  0  0  0
  6 37  1  0  0  0
  7  8  1  0  0  0
  7 15  1  0  0  0
  8  9  2  0  0  0
  8 14  1  0  0  0
  9 10  1  0  0  0
  9 11  1  0  0  0
 11 12  2  0  0  0
 11 38  1  0  0  0
 12 13  1  0  0  0
 12 39  1  0  0  0
 13 14  2  0  0  0
 15 16  2  0  0  0
 15 40  1  0  0  0
 16 17  1  0  0  0
 16 41  1  0  0  0
 17 18  2  0  0  0
 17 42  1  0  0  0
 18 19  1  0  0  0
 19 20  2  0  0  0
 19 43  1  0  0  0
 20 21  1  0  0  0
 20 44  1  0  0  0
 21 31  2  0  0  0
 21 45  1  0  0  0
 22 23  1  0  0  0
 22 27  2  0  0  0
 23 24  2  0  0  0
 23 31  1  0  0  0
 24 25  1  0  0  0
 24 28  1  0  0  0
 25 26  2  0  0  0
 25 46  1  0  0  0
 26 27  1  0  0  0
 26 47  1  0  0  0
 28 29  1  0  0  0
 29 30  2  0  0  0
 29 35  1  0  0  0
 30 31  1  0  0  0
 30 32  1  0  0  0
 32 33  2  0  0  0
 33 34  1  0  0  0
 34 35  2  0  0  0
 34 48  1  0  0  0
 35 49  1  0  0  0
  4 50  1  0  0  0
  5 51  1  0  0  0
 13 52  1  0  0  0
 14 53  1  0  0  0
 22 54  1  0  0  0
 27 55  1  0  0  0
 32 56  1  0  0  0
 33 57  1  0  0  0
 18 58  1  0  0  0
 59 60  1  0  0  0
 60 61  2  0  0  0
 60 62  1  0  0  0
 59 63  2  0  0  0
 62 64  1  0  0  0
 63 65  1  0  0  0
 68 67  1  0  0  0
 69 68  2  0  0  0
 70 69  1  0  0  0
 71 70  1  0  0  0
 66 67  2  0  0  0
 66 71  1  0  0  0
 69 63  1  0  0  0
 67 72  1  0  0  0
 68 73  1  0  0  0
 75 74  1  0  0  0
 76 75  1  0  0  0
 71 74  2  0  0  0
 70 76  2  0  0  0
 66 10  1  0  0  0
 77 78  3  0  0  0
 77 59  1  0  0  0
 79 80  1  0  0  0
 80 81  2  0  0  0
 80 82  1  0  0  0
 79 83  2  0  0  0
 82 84  1  0  0  0
 83 85  1  0  0  0
 88 87  1  0  0  0
 89 88  2  0  0  0
 90 89  1  0  0  0
 91 90  1  0  0  0
 86 87  2  0  0  0
 86 91  1  0  0  0
 89 83  1  0  0  0
 87 92  1  0  0  0
 88 93  1  0  0  0
 95 94  1  0  0  0
 96 95  1  0  0  0
 91 94  2  0  0  0
 90 96  2  0  0  0
 97 98  3  0  0  0
 97 79  1  0  0  0
 28 86  1  0  0  0
M  $3D  1
M  $3D -9  9 H84-H64
M  $3D 84 64   27.8477   27.8477
M  END
