C7AD-BTD-CNCOOH-18133
  MatStudio         3D                             0

 82 89  0  0  0  0  0  0  0  0999 V2000
   -3.1088    3.6386    8.1970 C   0  0  0  0  0  0  0  0  0  1
   -2.2338    3.7099    7.0924 C   0  0  0  0  0  0  0  0  0  2
   -1.9367    2.5380    6.3338 C   0  0  0  0  0  0  0  0  0  3
   -2.5552    1.3265    6.7334 C   0  0  0  0  0  0  0  0  0  4
   -3.4010    1.2613    7.8281 C   0  0  0  0  0  0  0  0  0  5
   -3.6819    2.4293    8.5616 C   0  0  0  0  0  0  0  0  0  6
   -1.0911    2.6312    5.1575 C   0  0  0  0  0  0  0  0  0  7
   -0.3748    3.8749    4.9562 C   0  0  0  0  0  0  0  0  0  8
   -0.7232    5.0338    5.7154 C   0  0  0  0  0  0  0  0  0  9
   -1.6840    4.9371    6.7197 N   0  3  0  0  0  0  0  0  0 10
   -0.0822    6.2654    5.4636 C   0  0  0  0  0  0  0  0  0 11
    0.9484    6.3432    4.5388 C   0  0  0  0  0  0  0  0  0 12
    1.3898    5.1893    3.8684 C   0  0  0  0  0  0  0  0  0 13
    0.7377    3.9855    4.0798 C   0  0  0  0  0  0  0  0  0 14
   -0.9776    1.5433    4.2629 C   0  0  0  0  0  0  0  0  0 15
   -0.6778    1.6409    2.9014 C   0  0  0  0  0  0  0  0  0 16
   -0.3792    0.5714    2.0488 C   0  0  0  0  0  0  0  0  0 17
   -0.0793    0.8071    0.7032 C   0  0  0  0  0  0  0  0  0 18
    0.4735   -0.1017   -0.2035 C   0  0  0  0  0  0  0  0  0 19
    0.8143    0.3151   -1.4967 C   0  0  0  0  0  0  0  0  0 20
    1.6104   -0.3977   -2.3958 C   0  0  0  0  0  0  0  0  0 21
   -0.1272    1.2776   -4.1951 C   0  0  0  0  0  0  0  0  0 22
    1.2579    1.0604   -4.4059 C   0  0  0  0  0  0  0  0  0 23
    1.9132    1.8363   -5.4111 C   0  0  0  0  0  0  0  0  0 24
    1.1962    2.8489   -6.0889 C   0  0  0  0  0  0  0  0  0 25
   -0.1476    3.0645   -5.8120 C   0  0  0  0  0  0  0  0  0 26
   -0.8227    2.2652   -4.8724 C   0  0  0  0  0  0  0  0  0 27
    3.2457    1.5859   -5.7057 N   0  0  0  0  0  0  0  0  0 28
    3.8412    0.3963   -5.3033 C   0  0  0  0  0  0  0  0  0 29
    3.2278   -0.4019   -4.2876 C   0  0  0  0  0  0  0  0  0 30
    2.0048    0.0664   -3.6697 C   0  0  0  0  0  0  0  0  0 31
    3.8836   -1.5913   -3.8858 C   0  0  0  0  0  0  0  0  0 32
    5.0840   -1.9868   -4.4522 C   0  0  0  0  0  0  0  0  0 33
    5.6763   -1.1920   -5.4520 C   0  0  0  0  0  0  0  0  0 34
    5.0677   -0.0177   -5.8721 C   0  0  0  0  0  0  0  0  0 35
    4.0102    2.5520   -6.5033 C   0  0  0  0  0  0  0  0  0 36
   -3.3343    4.5383    8.7672 H   0  0  0  0  0  0  0  0  0 37
   -4.3521    2.3937    9.4214 H   0  0  0  0  0  0  0  0  0 38
   -0.3770    7.1562    6.0149 H   0  0  0  0  0  0  0  0  0 39
    1.4418    7.3015    4.3717 H   0  0  0  0  0  0  0  0  0 40
   -1.2045    0.5432    4.6372 H   0  0  0  0  0  0  0  0  0 41
   -0.6819    2.6345    2.4439 H   0  0  0  0  0  0  0  0  0 42
   -0.2940   -0.4418    2.4534 H   0  0  0  0  0  0  0  0  0 43
    0.7028   -1.1230    0.1156 H   0  0  0  0  0  0  0  0  0 44
    0.5073    1.3286   -1.7693 H   0  0  0  0  0  0  0  0  0 45
    2.0784   -1.3061   -2.0110 H   0  0  0  0  0  0  0  0  0 46
    1.6771    3.4363   -6.8680 H   0  0  0  0  0  0  0  0  0 47
   -0.6858    3.8390   -6.3605 H   0  0  0  0  0  0  0  0  0 48
    6.6157   -1.5019   -5.9129 H   0  0  0  0  0  0  0  0  0 49
    5.5303    0.5616   -6.6681 H   0  0  0  0  0  0  0  0  0 50
    3.9287    2.3475   -7.5812 H   0  0  0  0  0  0  0  0  0 51
    5.0606    2.5164   -6.1985 H   0  0  0  0  0  0  0  0  0 52
    3.6367    3.5595   -6.2941 H   0  0  0  0  0  0  0  0  0 53
   -2.3647    0.4178    6.1666 H   0  0  0  0  0  0  0  0  0 54
   -3.8525    0.3101    8.1128 H   0  0  0  0  0  0  0  0  0 55
    2.2508    5.2350    3.2009 H   0  0  0  0  0  0  0  0  0 56
    1.1146    3.0864    3.5974 H   0  0  0  0  0  0  0  0  0 57
   -0.6604    0.6239   -3.5067 H   0  0  0  0  0  0  0  0  0 58
   -1.8900    2.4010   -4.6927 H   0  0  0  0  0  0  0  0  0 59
    3.4239   -2.2225   -3.1264 H   0  0  0  0  0  0  0  0  0 60
    5.5594   -2.9150   -4.1315 H   0  0  0  0  0  0  0  0  0 61
   -0.2350    1.8294    0.3384 H   0  0  0  0  0  0  0  0  0 62
   -2.7066   10.1451   10.9680 C   0  0  0  0  0  0  0  0  0 63
   -3.0466   11.5604   11.3073 C   0  0  0  0  0  0  0  0  0 64
   -3.3078   12.4196   10.4716 O   0  0  0  0  0  0  0  0  0 65
   -3.0241   11.7916   12.6409 O   0  0  0  0  0  0  0  0  0 66
   -2.7910    9.7801    9.6505 C   0  0  0  0  0  0  0  0  0 67
   -3.2191   12.7462   12.7692 H   0  0  0  0  0  0  0  0  0 68
   -3.1947   10.5612    8.9989 H   0  0  0  0  0  0  0  0  0 69
   -1.9758    6.1109    7.4976 C   0  0  0  0  0  0  0  0  0 70
   -2.9717    6.9960    7.1232 C   0  0  0  0  0  0  0  0  0 71
   -3.1933    8.1914    7.8419 C   0  0  0  0  0  0  0  0  0 72
   -2.4749    8.5339    8.9926 C   0  0  0  0  0  0  0  0  0 73
   -1.4230    7.6395    9.3809 C   0  0  0  0  0  0  0  0  0 74
   -1.1724    6.4293    8.6283 C   0  0  0  0  0  0  0  0  0 75
   -3.5747    6.7827    6.2409 H   0  0  0  0  0  0  0  0  0 76
   -3.9712    8.8716    7.4947 H   0  0  0  0  0  0  0  0  0 77
   -0.1053    5.7245    9.0644 N   0  0  0  0  0  0  0  0  0 78
    0.5083    6.5742   10.3150 S   0  0  0  0  0  0  0  0  0 79
   -0.5179    7.8400   10.3617 N   0  0  0  0  0  0  0  0  0 80
   -2.4439    9.2513   12.0428 C   0  0  0  0  0  0  0  0  0 81
   -2.3147    8.5428   12.9680 N   0  0  0  0  0  0  0  0  0 82
  1  2  1  0  0  0
  1  6  2  0  0  0
  1 37  1  0  0  0
  2  3  1  0  0  0
  2 10  2  0  0  0
  3  4  1  0  0  0
  3  7  2  0  0  0
  4  5  2  0  0  0
  5  6  1  0  0  0
  6 38  1  0  0  0
  7  8  1  0  0  0
  7 15  1  0  0  0
  8  9  2  0  0  0
  8 14  1  0  0  0
  9 10  1  0  0  0
  9 11  1  0  0  0
 11 12  2  0  0  0
 11 39  1  0  0  0
 12 13  1  0  0  0
 12 40  1  0  0  0
 13 14  2  0  0  0
 15 16  2  0  0  0
 15 41  1  0  0  0
 16 17  1  0  0  0
 16 42  1  0  0  0
 17 18  2  0  0  0
 17 43  1  0  0  0
 18 19  1  0  0  0
 19 20  2  0  0  0
 19 44  1  0  0  0
 20 21  1  0  0  0
 20 45  1  0  0  0
 21 31  2  0  0  0
 21 46  1  0  0  0
 22 23  1  0  0  0
 22 27  2  0  0  0
 23 24  2  0  0  0
 23 31  1  0  0  0
 24 25  1  0  0  0
 24 28  1  0  0  0
 25 26  2  0  0  0
 25 47  1  0  0  0
 26 27  1  0  0  0
 26 48  1  0  0  0
 28 29  1  0  0  0
 28 36  1  0  0  0
 29 30  2  0  0  0
 29 35  1  0  0  0
 30 31  1  0  0  0
 30 32  1  0  0  0
 32 33  2  0  0  0
 33 34  1  0  0  0
 34 35  2  0  0  0
 34 49  1  0  0  0
 35 50  1  0  0  0
 36 51  1  0  0  0
 36 52  1  0  0  0
 36 53  1  0  0  0
  4 54  1  0  0  0
  5 55  1  0  0  0
 13 56  1  0  0  0
 14 57  1  0  0  0
 22 58  1  0  0  0
 27 59  1  0  0  0
 32 60  1  0  0  0
 33 61  1  0  0  0
 18 62  1  0  0  0
 63 64  1  0  0  0
 64 65  2  0  0  0
 64 66  1  0  0  0
 63 67  2  0  0  0
 66 68  1  0  0  0
 67 69  1  0  0  0
 72 71  1  0  0  0
 73 72  2  0  0  0
 74 73  1  0  0  0
 75 74  1  0  0  0
 70 71  2  0  0  0
 70 75  1  0  0  0
 73 67  1  0  0  0
 71 76  1  0  0  0
 72 77  1  0  0  0
 79 78  1  0  0  0
 80 79  1  0  0  0
 75 78  2  0  0  0
 74 80  2  0  0  0
 70 10  1  0  0  0
 81 82  3  0  0  0
 81 63  1  0  0  0
M  END
