21a-18242
  MatStudio         3D                             0

 77 83  0  0  0  0  0  0  0  0999 V2000
   19.4675  -19.3373   -1.0147 C   0  0  0  0  0  0  0  0  0  1
   19.8951  -20.8039   -1.7931 S   0  0  0  0  0  0  0  0  0  2
   20.5789  -18.7567   -0.4090 C   0  0  0  0  0  0  0  0  0  3
   21.5480  -20.6781   -1.2828 C   0  0  0  0  0  0  0  0  0  4
   21.7378  -19.5024   -0.5562 C   0  0  0  0  0  0  0  0  0  5
   25.1199  -23.7178   -2.4252 N   0  0  0  0  0  0  0  0  0  6
   13.1751  -12.1714    4.9693 C   0  0  0  0  0  0  0  0  0  7
   13.6045   -8.9168    3.2520 C   0  0  0  0  0  0  0  0  0  8
   13.3882  -10.2340    3.4608 C   0  0  0  0  0  0  0  0  0  9
   13.8515   -8.0707    4.2932 O   0  0  0  0  0  0  0  0  0 10
   13.3537  -10.8078    4.7679 C   0  0  0  0  0  0  0  0  0 11
   13.8425   -8.5641    5.5656 C   0  0  0  0  0  0  0  0  0 12
   13.5596   -9.8636    5.8192 C   0  0  0  0  0  0  0  0  0 13
   12.8079  -12.7221    6.2682 C   0  0  0  0  0  0  0  0  0 14
   11.9164  -12.0632    7.1259 C   0  0  0  0  0  0  0  0  0 15
   13.3303  -13.9517    6.6934 C   0  0  0  0  0  0  0  0  0 16
   11.5776  -12.6003    8.3582 C   0  0  0  0  0  0  0  0  0 17
   12.9922  -14.4888    7.9244 C   0  0  0  0  0  0  0  0  0 18
   12.1154  -13.8150    8.7663 C   0  0  0  0  0  0  0  0  0 19
   13.4440  -13.1034    3.8859 C   0  0  0  0  0  0  0  0  0 20
   12.6830  -14.2664    3.6919 C   0  0  0  0  0  0  0  0  0 21
   14.5463  -12.9035    3.0397 C   0  0  0  0  0  0  0  0  0 22
   13.0069  -15.1875    2.7158 C   0  0  0  0  0  0  0  0  0 23
   14.8935  -13.8247    2.0792 C   0  0  0  0  0  0  0  0  0 24
   14.1382  -14.9968    1.9081 C   0  0  0  0  0  0  0  0  0 25
   14.6195  -15.9650    1.0185 C   0  0  0  0  0  0  0  0  0 26
   15.1925  -16.7756    0.3001 C   0  0  0  0  0  0  0  0  0 27
   16.0521  -17.6536   -0.3435 C   0  0  0  0  0  0  0  0  0 28
   17.7308  -17.5473    0.0556 S   0  0  0  0  0  0  0  0  0 29
   15.8267  -18.6824   -1.2481 C   0  0  0  0  0  0  0  0  0 30
   18.1265  -18.8703   -0.9706 C   0  0  0  0  0  0  0  0  0 31
   16.9930  -19.3615   -1.5996 C   0  0  0  0  0  0  0  0  0 32
   22.4556  -21.6803   -1.6922 C   0  0  0  0  0  0  0  0  0 33
   23.6438  -22.0575   -1.1190 C   0  0  0  0  0  0  0  0  0 34
   24.4592  -22.9671   -1.8257 C   0  0  0  0  0  0  0  0  0 35
   24.1803  -21.7083    0.2049 C   0  0  0  0  0  0  0  0  0 36
   25.3396  -21.9318    0.5066 O   0  0  0  0  0  0  0  0  0 37
   23.3452  -21.1971    1.1172 O   0  0  0  0  0  0  0  0  0 38
   13.4286   -8.3181   -0.4419 C   0  0  0  0  0  0  0  0  0 39
   13.4341   -8.9658    0.7796 C   0  0  0  0  0  0  0  0  0 40
   13.5903   -6.9379   -0.5049 C   0  0  0  0  0  0  0  0  0 41
   13.5980   -8.2447    1.9666 C   0  0  0  0  0  0  0  0  0 42
   13.7582   -6.2138    0.6671 C   0  0  0  0  0  0  0  0  0 43
   13.7619   -6.8592    1.8941 C   0  0  0  0  0  0  0  0  0 44
   14.2235   -7.5652    6.5463 C   0  0  0  0  0  0  0  0  0 45
   14.0692   -7.8011    7.9152 C   0  0  0  0  0  0  0  0  0 46
   14.7783   -6.3518    6.1304 C   0  0  0  0  0  0  0  0  0 47
   14.4707   -6.8544    8.8403 C   0  0  0  0  0  0  0  0  0 48
   15.1802   -5.4065    7.0605 C   0  0  0  0  0  0  0  0  0 49
   15.0326   -5.6539    8.4183 C   0  0  0  0  0  0  0  0  0 50
   20.5333  -17.7971    0.1136 H   0  0  0  0  0  0  0  0  0 51
   22.7160  -19.1717   -0.1980 H   0  0  0  0  0  0  0  0  0 52
   13.1756  -10.8661    2.5964 H   0  0  0  0  0  0  0  0  0 53
   13.6061  -10.2099    6.8545 H   0  0  0  0  0  0  0  0  0 54
   11.4562  -11.1240    6.7985 H   0  0  0  0  0  0  0  0  0 55
   14.0299  -14.4853    6.0406 H   0  0  0  0  0  0  0  0  0 56
   10.8696  -12.0698    9.0033 H   0  0  0  0  0  0  0  0  0 57
   13.4249  -15.4459    8.2341 H   0  0  0  0  0  0  0  0  0 58
   11.8451  -14.2409    9.7376 H   0  0  0  0  0  0  0  0  0 59
   11.8179  -14.4479    4.3388 H   0  0  0  0  0  0  0  0  0 60
   15.1791  -12.0221    3.1887 H   0  0  0  0  0  0  0  0  0 61
   12.4013  -16.0896    2.5877 H   0  0  0  0  0  0  0  0  0 62
   15.7857  -13.6721    1.4645 H   0  0  0  0  0  0  0  0  0 63
   14.8320  -18.9158   -1.6324 H   0  0  0  0  0  0  0  0  0 64
   17.0224  -20.2035   -2.2972 H   0  0  0  0  0  0  0  0  0 65
   22.1728  -22.2326   -2.5978 H   0  0  0  0  0  0  0  0  0 66
   22.4301  -21.0992    0.7548 H   0  0  0  0  0  0  0  0  0 67
   13.2995   -8.8992   -1.3602 H   0  0  0  0  0  0  0  0  0 68
   13.3150  -10.0535    0.8060 H   0  0  0  0  0  0  0  0  0 69
   13.5864   -6.4273   -1.4727 H   0  0  0  0  0  0  0  0  0 70
   13.8869   -5.1277    0.6279 H   0  0  0  0  0  0  0  0  0 71
   13.8867   -6.2858    2.8173 H   0  0  0  0  0  0  0  0  0 72
   13.6165   -8.7350    8.2641 H   0  0  0  0  0  0  0  0  0 73
   14.9076   -6.1605    5.0611 H   0  0  0  0  0  0  0  0  0 74
   14.3426   -7.0548    9.9084 H   0  0  0  0  0  0  0  0  0 75
   15.6217   -4.4653    6.7180 H   0  0  0  0  0  0  0  0  0 76
   15.3534   -4.9083    9.1524 H   0  0  0  0  0  0  0  0  0 77
  1  2  1  0  0  0
  1  3  2  0  0  0
  2  4  1  0  0  0
  3  5  1  0  0  0
  4  5  2  0  0  0
  8  9  2  0  0  0
  8 10  1  0  0  0
  9 11  1  0  0  0
 10 12  1  0  0  0
 11 13  1  0  0  0
 12 13  2  0  0  0
  7 11  2  0  0  0
 14 15  1  0  0  0
 14 16  2  0  0  0
 15 17  2  0  0  0
 16 18  1  0  0  0
 17 19  1  0  0  0
 18 19  2  0  0  0
  7 14  1  0  0  0
 20 21  1  0  0  0
 20 22  2  0  0  0
 21 23  2  0  0  0
 22 24  1  0  0  0
 23 25  1  0  0  0
 24 25  2  0  0  0
  7 20  1  0  0  0
 25 26  1  0  0  0
 26 27  3  0  0  0
 28 29  1  0  0  0
 28 30  2  0  0  0
 29 31  1  0  0  0
 30 32  1  0  0  0
 31 32  2  0  0  0
 27 28  1  0  0  0
 33 34  2  0  0  0
 34 35  1  0  0  0
 34 36  1  0  0  0
  6 35  3  0  0  0
 36 37  2  0  0  0
 36 38  1  0  0  0
  1 31  1  0  0  0
  4 33  1  0  0  0
 39 40  1  0  0  0
 39 41  2  0  0  0
 40 42  2  0  0  0
 41 43  1  0  0  0
 42 44  1  0  0  0
 43 44  2  0  0  0
 45 46  1  0  0  0
 45 47  2  0  0  0
 46 48  2  0  0  0
 47 49  1  0  0  0
 48 50  1  0  0  0
 49 50  2  0  0  0
  8 42  1  0  0  0
 45 12  1  0  0  0
  3 51  1  0  0  0
  5 52  1  0  0  0
  9 53  1  0  0  0
 13 54  1  0  0  0
 15 55  1  0  0  0
 16 56  1  0  0  0
 17 57  1  0  0  0
 18 58  1  0  0  0
 19 59  1  0  0  0
 21 60  1  0  0  0
 22 61  1  0  0  0
 23 62  1  0  0  0
 24 63  1  0  0  0
 30 64  1  0  0  0
 32 65  1  0  0  0
 33 66  1  0  0  0
 38 67  1  0  0  0
 39 68  1  0  0  0
 40 69  1  0  0  0
 41 70  1  0  0  0
 43 71  1  0  0  0
 44 72  1  0  0  0
 46 73  1  0  0  0
 47 74  1  0  0  0
 48 75  1  0  0  0
 49 76  1  0  0  0
 50 77  1  0  0  0
M  END
