DPACA-122
  MatStudio         3D                             0

 49 52  0  0  0  0  0  0  0  0999 V2000
   -7.0244    2.2627   -0.9076 C   0  0  0  0  0  0  0  0  0  1
   -6.7691    0.9429   -0.5846 C   0  0  0  0  0  0  0  0  0  2
   -5.4627    0.4920   -0.3798 C   0  0  0  0  0  0  0  0  0  3
   -4.3884    1.3799   -0.4987 C   0  0  0  0  0  0  0  0  0  4
   -4.6595    2.7025   -0.8241 C   0  0  0  0  0  0  0  0  0  5
   -5.9572    3.1346   -1.0246 C   0  0  0  0  0  0  0  0  0  6
   -2.9527    0.9592   -0.2971 C   0  0  0  0  0  0  0  0  0  7
   -2.8560   -0.5036    0.0687 C   0  0  0  0  0  0  0  0  0  8
   -3.9847   -1.3385    0.1681 C   0  0  0  0  0  0  0  0  0  9
   -5.2422   -0.8461   -0.0570 N   0  0  0  0  0  0  0  0  0 10
   -3.8202   -2.6961    0.5027 C   0  0  0  0  0  0  0  0  0 11
   -2.5783   -3.2234    0.7393 C   0  0  0  0  0  0  0  0  0 12
   -1.4319   -2.4128    0.6517 C   0  0  0  0  0  0  0  0  0 13
   -1.6212   -1.0609    0.3139 C   0  0  0  0  0  0  0  0  0 14
   -6.2742    4.9523   -1.4635 Br  0  0  0  0  0  0  0  0  0 15
   -2.1801    1.1979   -1.5928 C   0  0  0  0  0  0  0  0  0 16
   -2.3374    1.7971    0.8205 C   0  0  0  0  0  0  0  0  0 17
   -6.3646   -1.7154    0.0677 C   0  0  0  0  0  0  0  0  0 18
   -0.1060   -2.8513    0.8788 C   0  0  0  0  0  0  0  0  0 19
    0.3993   -4.0810    1.2090 C   0  0  0  0  0  0  0  0  0 20
    1.8475   -4.1915    1.3855 C   0  0  0  0  0  0  0  0  0 21
    2.6351   -3.2658    1.2606 O   0  0  0  0  0  0  0  0  0 22
    2.2303   -5.4355    1.7072 O   0  0  0  0  0  0  0  0  0 23
   -6.8214   -2.4074   -1.0442 C   0  0  0  0  0  0  0  0  0 24
   -7.9149   -3.2528   -0.9178 C   0  0  0  0  0  0  0  0  0 25
   -8.5437   -3.3988    0.3119 C   0  0  0  0  0  0  0  0  0 26
   -8.0801   -2.7003    1.4195 C   0  0  0  0  0  0  0  0  0 27
   -6.9872   -1.8536    1.2994 C   0  0  0  0  0  0  0  0  0 28
   -0.3725   -5.2403    1.3907 C   0  0  0  0  0  0  0  0  0 29
   -1.0127   -6.2056    1.5393 N   0  0  0  0  0  0  0  0  0 30
   -8.0499    2.6062   -1.0655 H   0  0  0  0  0  0  0  0  0 31
   -7.6027    0.2417   -0.4873 H   0  0  0  0  0  0  0  0  0 32
   -3.8343    3.4149   -0.9242 H   0  0  0  0  0  0  0  0  0 33
   -4.7050   -3.3349    0.5731 H   0  0  0  0  0  0  0  0  0 34
   -2.4920   -4.2829    0.9956 H   0  0  0  0  0  0  0  0  0 35
   -0.7300   -0.4248    0.2454 H   0  0  0  0  0  0  0  0  0 36
   -2.2107    2.2649   -1.8707 H   0  0  0  0  0  0  0  0  0 37
   -2.6045    0.6083   -2.4223 H   0  0  0  0  0  0  0  0  0 38
   -1.1229    0.9096   -1.4662 H   0  0  0  0  0  0  0  0  0 39
   -1.2794    1.5230    0.9683 H   0  0  0  0  0  0  0  0  0 40
   -2.8728    1.6437    1.7721 H   0  0  0  0  0  0  0  0  0 41
   -2.3736    2.8701    0.5686 H   0  0  0  0  0  0  0  0  0 42
    0.6787   -2.0872    0.7791 H   0  0  0  0  0  0  0  0  0 43
    3.2094   -5.4132    1.8131 H   0  0  0  0  0  0  0  0  0 44
   -6.3118   -2.2794   -2.0048 H   0  0  0  0  0  0  0  0  0 45
   -8.2774   -3.8041   -1.7907 H   0  0  0  0  0  0  0  0  0 46
   -9.4046   -4.0674    0.4087 H   0  0  0  0  0  0  0  0  0 47
   -8.5732   -2.8158    2.3895 H   0  0  0  0  0  0  0  0  0 48
   -6.6069   -1.2939    2.1602 H   0  0  0  0  0  0  0  0  0 49
  3  2  1  0  0  0
  4  3  2  0  0  0
  5  4  1  0  0  0
  6  5  2  0  0  0
  1  2  2  0  0  0
  1  6  1  0  0  0
  8  7  1  0  0  0
  9  8  1  0  0  0
 10  9  1  0  0  0
  4  7  1  0  0  0
  3 10  1  0  0  0
 12 11  1  0  0  0
 13 12  2  0  0  0
 14 13  1  0  0  0
  9 11  2  0  0  0
  8 14  2  0  0  0
  6 15  1  0  0  0
  7 16  1  0  0  0
  7 17  1  0  0  0
 10 18  1  0  0  0
 13 19  1  0  0  0
 19 20  2  0  0  0
 20 21  1  0  0  0
 21 22  2  0  0  0
 21 23  1  0  0  0
 25 24  2  0  0  0
 26 25  1  0  0  0
 27 26  2  0  0  0
 28 27  1  0  0  0
 18 24  1  0  0  0
 18 28  2  0  0  0
 20 29  1  0  0  0
 29 30  3  0  0  0
  1 31  1  0  0  0
  2 32  1  0  0  0
  5 33  1  0  0  0
 11 34  1  0  0  0
 12 35  1  0  0  0
 14 36  1  0  0  0
 16 37  1  0  0  0
 16 38  1  0  0  0
 16 39  1  0  0  0
 17 40  1  0  0  0
 17 41  1  0  0  0
 17 42  1  0  0  0
 19 43  1  0  0  0
 23 44  1  0  0  0
 24 45  1  0  0  0
 25 46  1  0  0  0
 26 47  1  0  0  0
 27 48  1  0  0  0
 28 49  1  0  0  0
M  END
