T1-2395
  MatStudio         3D                             0

 69 70  0  0  0  0  0  0  0  0999 V2000
   16.2318  -12.9420   -1.0157 C   0  0  0  0  0  0  0  0  0  1
   17.3715  -13.6053   -1.5679 O   0  0  0  0  0  0  0  0  0  2
   21.1798  -12.1080   -0.9512 C   0  0  0  0  0  0  0  0  0  3
   20.0604  -11.4097   -0.4663 C   0  0  0  0  0  0  0  0  0  4
   20.9484  -13.3020   -1.6640 C   0  0  0  0  0  0  0  0  0  5
   18.7735  -11.8658   -0.6566 C   0  0  0  0  0  0  0  0  0  6
   19.6723  -13.7659   -1.8606 C   0  0  0  0  0  0  0  0  0  7
   18.5736  -13.0606   -1.3511 C   0  0  0  0  0  0  0  0  0  8
   15.0250  -13.7962   -1.2493 C   0  0  0  0  0  0  0  0  0  9
   13.7844  -13.1682   -0.6571 C   0  0  0  0  0  0  0  0  0 10
   12.5635  -14.0495   -0.7763 C   0  0  0  0  0  0  0  0  0 11
   11.3247  -13.4380   -0.1664 C   0  0  0  0  0  0  0  0  0 12
   10.1298  -14.3616   -0.1841 C   0  0  0  0  0  0  0  0  0 13
    8.8906  -13.7582    0.4334 C   0  0  0  0  0  0  0  0  0 14
    7.7229  -14.7143    0.4935 C   0  0  0  0  0  0  0  0  0 15
    6.4803  -14.1149    1.1080 C   0  0  0  0  0  0  0  0  0 16
    5.3292  -15.0874    1.2088 C   0  0  0  0  0  0  0  0  0 17
    4.0825  -14.4919    1.8201 C   0  0  0  0  0  0  0  0  0 18
    2.9498  -15.4865    1.9237 C   0  0  0  0  0  0  0  0  0 19
   22.4552  -11.5530   -0.6638 C   0  0  0  0  0  0  0  0  0 20
   23.7224  -11.9863   -0.9616 C   0  0  0  0  0  0  0  0  0 21
   23.9723  -13.1651   -1.6965 C   0  0  0  0  0  0  0  0  0 22
   24.2233  -14.1183   -2.3210 N   0  0  0  0  0  0  0  0  0 23
   24.8894  -11.2622   -0.5316 C   0  0  0  0  0  0  0  0  0 24
   26.4543  -11.8478   -0.8881 S   0  0  0  0  0  0  0  0  0 25
   24.9530  -10.0705    0.1885 C   0  0  0  0  0  0  0  0  0 26
   27.2153  -10.5177   -0.0818 C   0  0  0  0  0  0  0  0  0 27
   26.2492   -9.6558    0.4399 C   0  0  0  0  0  0  0  0  0 28
   28.6173  -10.4784   -0.0512 C   0  0  0  0  0  0  0  0  0 29
   16.1247  -11.9488   -1.4930 H   0  0  0  0  0  0  0  0  0 30
   16.3952  -12.7875    0.0679 H   0  0  0  0  0  0  0  0  0 31
   20.2227  -10.4755    0.0825 H   0  0  0  0  0  0  0  0  0 32
   21.7846  -13.8798   -2.0662 H   0  0  0  0  0  0  0  0  0 33
   17.9279  -11.2951   -0.2665 H   0  0  0  0  0  0  0  0  0 34
   15.1954  -14.7896   -0.7931 H   0  0  0  0  0  0  0  0  0 35
   14.8892  -13.9592   -2.3346 H   0  0  0  0  0  0  0  0  0 36
   13.5888  -12.1931   -1.1455 H   0  0  0  0  0  0  0  0  0 37
   13.9620  -12.9425    0.4135 H   0  0  0  0  0  0  0  0  0 38
   12.7699  -15.0217   -0.2849 H   0  0  0  0  0  0  0  0  0 39
   12.3756  -14.2834   -1.8434 H   0  0  0  0  0  0  0  0  0 40
   11.0756  -12.4967   -0.6967 H   0  0  0  0  0  0  0  0  0 41
   11.5407  -13.1459    0.8816 H   0  0  0  0  0  0  0  0  0 42
   10.3876  -15.2962    0.3546 H   0  0  0  0  0  0  0  0  0 43
    9.9113  -14.6660   -1.2278 H   0  0  0  0  0  0  0  0  0 44
    8.5979  -12.8525   -0.1355 H   0  0  0  0  0  0  0  0  0 45
    9.1266  -13.4070    1.4587 H   0  0  0  0  0  0  0  0  0 46
    8.0194  -15.6135    1.0712 H   0  0  0  0  0  0  0  0  0 47
    7.4898  -15.0769   -0.5283 H   0  0  0  0  0  0  0  0  0 48
    6.1656  -13.2324    0.5146 H   0  0  0  0  0  0  0  0  0 49
    6.7213  -13.7276    2.1189 H   0  0  0  0  0  0  0  0  0 50
    5.6444  -15.9669    1.8068 H   0  0  0  0  0  0  0  0  0 51
    5.0898  -15.4813    0.1999 H   0  0  0  0  0  0  0  0  0 52
    3.7664  -13.6189    1.2165 H   0  0  0  0  0  0  0  0  0 53
    4.3281  -14.0919    2.8231 H   0  0  0  0  0  0  0  0  0 54
    3.2437  -16.3525    2.5433 H   0  0  0  0  0  0  0  0  0 55
    2.6738  -15.8751    0.9273 H   0  0  0  0  0  0  0  0  0 56
    2.0457  -15.0436    2.3736 H   0  0  0  0  0  0  0  0  0 57
   22.4140  -10.6182   -0.0906 H   0  0  0  0  0  0  0  0  0 58
   24.0686   -9.5223    0.5206 H   0  0  0  0  0  0  0  0  0 59
   26.5007   -8.7464    0.9908 H   0  0  0  0  0  0  0  0  0 60
   29.1460  -11.2997   -0.5506 H   0  0  0  0  0  0  0  0  0 61
   29.4358   -9.5405    0.5280 C   0  0  0  0  0  0  0  0  0 62
   28.9485   -8.4121    1.2093 C   0  0  0  0  0  0  0  0  0 63
   30.8877   -9.6488    0.4812 C   0  0  0  0  0  0  0  0  0 64
   31.6415   -8.8276    0.9875 O   0  0  0  0  0  0  0  0  0 65
   31.3202  -10.7364   -0.1680 O   0  0  0  0  0  0  0  0  0 66
   28.5199   -7.4828    1.7696 N   0  0  0  0  0  0  0  0  0 67
   32.3045  -10.7152   -0.1413 H   0  0  0  0  0  0  0  0  0 68
   19.4864  -14.6961   -2.4060 H   0  0  0  0  0  0  0  0  0 69
  3  4  1  0  0  0
  3  5  2  0  0  0
  4  6  2  0  0  0
  5  7  1  0  0  0
  6  8  1  0  0  0
  7  8  2  0  0  0
  2  8  1  0  0  0
  1  2  1  0  0  0
  1  9  1  0  0  0
  9 10  1  0  0  0
 10 11  1  0  0  0
 11 12  1  0  0  0
 12 13  1  0  0  0
 13 14  1  0  0  0
 14 15  1  0  0  0
 15 16  1  0  0  0
 16 17  1  0  0  0
 17 18  1  0  0  0
 18 19  1  0  0  0
  3 20  1  0  0  0
 20 21  2  0  0  0
 21 22  1  0  0  0
 22 23  3  0  0  0
 24 25  1  0  0  0
 24 26  2  0  0  0
 25 27  1  0  0  0
 26 28  1  0  0  0
 27 28  2  0  0  0
 21 24  1  0  0  0
 27 29  1  0  0  0
  1 30  1  0  0  0
  1 31  1  0  0  0
  4 32  1  0  0  0
  5 33  1  0  0  0
  6 34  1  0  0  0
  9 35  1  0  0  0
  9 36  1  0  0  0
 10 37  1  0  0  0
 10 38  1  0  0  0
 11 39  1  0  0  0
 11 40  1  0  0  0
 12 41  1  0  0  0
 12 42  1  0  0  0
 13 43  1  0  0  0
 13 44  1  0  0  0
 14 45  1  0  0  0
 14 46  1  0  0  0
 15 47  1  0  0  0
 15 48  1  0  0  0
 16 49  1  0  0  0
 16 50  1  0  0  0
 17 51  1  0  0  0
 17 52  1  0  0  0
 18 53  1  0  0  0
 18 54  1  0  0  0
 19 55  1  0  0  0
 19 56  1  0  0  0
 19 57  1  0  0  0
 20 58  1  0  0  0
 26 59  1  0  0  0
 28 60  1  0  0  0
 29 61  1  0  0  0
 29 62  2  0  0  0
 62 63  1  0  0  0
 62 64  1  0  0  0
 64 65  2  0  0  0
 64 66  1  0  0  0
 63 67  3  0  0  0
 66 68  1  0  0  0
  7 69  1  0  0  0
M  END
