21a-18242
  MatStudio         3D                             0

 77 83  0  0  0  0  0  0  0  0999 V2000
   19.5399  -19.4346   -0.9262 C   0  0  0  0  0  0  0  0  0  1
   19.9971  -20.8494   -1.8233 S   0  0  0  0  0  0  0  0  0  2
   20.6483  -18.9099   -0.2422 C   0  0  0  0  0  0  0  0  0  3
   21.6586  -20.7641   -1.2555 C   0  0  0  0  0  0  0  0  0  4
   21.8208  -19.6461   -0.4204 C   0  0  0  0  0  0  0  0  0  5
   25.2966  -23.6052   -2.7810 N   0  0  0  0  0  0  0  0  0  6
   13.0886  -12.1415    4.9849 C   0  0  0  0  0  0  0  0  0  7
   13.5324   -8.8662    3.2387 C   0  0  0  0  0  0  0  0  0  8
   13.3013  -10.1898    3.4586 C   0  0  0  0  0  0  0  0  0  9
   13.8429   -8.0180    4.2870 O   0  0  0  0  0  0  0  0  0 10
   13.2889  -10.7672    4.7788 C   0  0  0  0  0  0  0  0  0 11
   13.8657   -8.5222    5.5745 C   0  0  0  0  0  0  0  0  0 12
   13.5457   -9.8212    5.8354 C   0  0  0  0  0  0  0  0  0 13
   12.6716  -12.6903    6.2880 C   0  0  0  0  0  0  0  0  0 14
   11.7330  -12.0237    7.1081 C   0  0  0  0  0  0  0  0  0 15
   13.1819  -13.9261    6.7539 C   0  0  0  0  0  0  0  0  0 16
   11.3365  -12.5578    8.3360 C   0  0  0  0  0  0  0  0  0 17
   12.7838  -14.4603    7.9801 C   0  0  0  0  0  0  0  0  0 18
   11.8573  -13.7799    8.7806 C   0  0  0  0  0  0  0  0  0 19
   13.3819  -13.0882    3.8950 C   0  0  0  0  0  0  0  0  0 20
   12.5677  -14.2104    3.6115 C   0  0  0  0  0  0  0  0  0 21
   14.5659  -12.9350    3.1355 C   0  0  0  0  0  0  0  0  0 22
   12.9218  -15.1378    2.6345 C   0  0  0  0  0  0  0  0  0 23
   14.9399  -13.8619    2.1743 C   0  0  0  0  0  0  0  0  0 24
   14.1312  -14.9959    1.9154 C   0  0  0  0  0  0  0  0  0 25
   14.6300  -15.9788    1.0304 C   0  0  0  0  0  0  0  0  0 26
   15.2192  -16.7993    0.3274 C   0  0  0  0  0  0  0  0  0 27
   16.0926  -17.6918   -0.3014 C   0  0  0  0  0  0  0  0  0 28
   17.7781  -17.6308    0.1683 S   0  0  0  0  0  0  0  0  0 29
   15.8859  -18.6938   -1.2530 C   0  0  0  0  0  0  0  0  0 30
   18.1916  -18.9483   -0.8964 C   0  0  0  0  0  0  0  0  0 31
   17.0588  -19.3958   -1.5821 C   0  0  0  0  0  0  0  0  0 32
   22.5865  -21.7224   -1.7488 C   0  0  0  0  0  0  0  0  0 33
   23.8283  -22.1018   -1.2548 C   0  0  0  0  0  0  0  0  0 34
   24.6399  -22.9243   -2.0861 C   0  0  0  0  0  0  0  0  0 35
   24.4409  -21.8126    0.0659 C   0  0  0  0  0  0  0  0  0 36
   25.6508  -21.8855    0.2679 O   0  0  0  0  0  0  0  0  0 37
   23.6179  -21.5122    1.1061 O   0  0  0  0  0  0  0  0  0 38
   13.1689   -8.2111   -0.4720 C   0  0  0  0  0  0  0  0  0 39
   13.2454   -8.8812    0.7489 C   0  0  0  0  0  0  0  0  0 40
   13.3095   -6.8174   -0.5255 C   0  0  0  0  0  0  0  0  0 41
   13.4633   -8.1699    1.9483 C   0  0  0  0  0  0  0  0  0 42
   13.5271   -6.1017    0.6564 C   0  0  0  0  0  0  0  0  0 43
   13.6040   -6.7679    1.8828 C   0  0  0  0  0  0  0  0  0 44
   14.3440   -7.5366    6.5509 C   0  0  0  0  0  0  0  0  0 45
   14.0789   -7.6917    7.9273 C   0  0  0  0  0  0  0  0  0 46
   15.1099   -6.4295    6.1297 C   0  0  0  0  0  0  0  0  0 47
   14.5786   -6.7748    8.8531 C   0  0  0  0  0  0  0  0  0 48
   15.6098   -5.5165    7.0613 C   0  0  0  0  0  0  0  0  0 49
   15.3492   -5.6853    8.4263 C   0  0  0  0  0  0  0  0  0 50
   20.5947  -18.0007    0.3567 H   0  0  0  0  0  0  0  0  0 51
   22.7792  -19.3456   -0.0012 H   0  0  0  0  0  0  0  0  0 52
   13.0495  -10.8156    2.6066 H   0  0  0  0  0  0  0  0  0 53
   13.6190  -10.1704    6.8631 H   0  0  0  0  0  0  0  0  0 54
   11.2898  -11.0873    6.7634 H   0  0  0  0  0  0  0  0  0 55
   13.9115  -14.4643    6.1455 H   0  0  0  0  0  0  0  0  0 56
   10.6037  -12.0234    8.9447 H   0  0  0  0  0  0  0  0  0 57
   13.2019  -15.4127    8.3137 H   0  0  0  0  0  0  0  0  0 58
   11.5407  -14.1984    9.7380 H   0  0  0  0  0  0  0  0  0 59
   11.6424  -14.3572    4.1710 H   0  0  0  0  0  0  0  0  0 60
   15.2274  -12.0920    3.3413 H   0  0  0  0  0  0  0  0  0 61
   12.2810  -15.9997    2.4432 H   0  0  0  0  0  0  0  0  0 62
   15.8789  -13.7384    1.6337 H   0  0  0  0  0  0  0  0  0 63
   14.9085  -18.8940   -1.6890 H   0  0  0  0  0  0  0  0  0 64
   17.0852  -20.2102   -2.3058 H   0  0  0  0  0  0  0  0  0 65
   22.2849  -22.2274   -2.6712 H   0  0  0  0  0  0  0  0  0 66
   22.6759  -21.5765    0.8389 H   0  0  0  0  0  0  0  0  0 67
   12.9997   -8.7808   -1.3871 H   0  0  0  0  0  0  0  0  0 68
   13.1357   -9.9655    0.7611 H   0  0  0  0  0  0  0  0  0 69
   13.2492   -6.2966   -1.4828 H   0  0  0  0  0  0  0  0  0 70
   13.6361   -5.0163    0.6255 H   0  0  0  0  0  0  0  0  0 71
   13.7658   -6.1977    2.7962 H   0  0  0  0  0  0  0  0  0 72
   13.4661   -8.5241    8.2766 H   0  0  0  0  0  0  0  0  0 73
   15.3316   -6.2980    5.0706 H   0  0  0  0  0  0  0  0  0 74
   14.3598   -6.9084    9.9142 H   0  0  0  0  0  0  0  0  0 75
   16.2108   -4.6724    6.7175 H   0  0  0  0  0  0  0  0  0 76
   15.7414   -4.9714    9.1525 H   0  0  0  0  0  0  0  0  0 77
  1  2  1  0  0  0
  1  3  2  0  0  0
  2  4  1  0  0  0
  3  5  1  0  0  0
  4  5  2  0  0  0
  8  9  2  0  0  0
  8 10  1  0  0  0
  9 11  1  0  0  0
 10 12  1  0  0  0
 11 13  1  0  0  0
 12 13  2  0  0  0
  7 11  2  0  0  0
 14 15  1  0  0  0
 14 16  2  0  0  0
 15 17  2  0  0  0
 16 18  1  0  0  0
 17 19  1  0  0  0
 18 19  2  0  0  0
  7 14  1  0  0  0
 20 21  1  0  0  0
 20 22  2  0  0  0
 21 23  2  0  0  0
 22 24  1  0  0  0
 23 25  1  0  0  0
 24 25  2  0  0  0
  7 20  1  0  0  0
 25 26  1  0  0  0
 26 27  3  0  0  0
 28 29  1  0  0  0
 28 30  2  0  0  0
 29 31  1  0  0  0
 30 32  1  0  0  0
 31 32  2  0  0  0
 27 28  1  0  0  0
 33 34  2  0  0  0
 34 35  1  0  0  0
 34 36  1  0  0  0
  6 35  3  0  0  0
 36 37  2  0  0  0
 36 38  1  0  0  0
  1 31  1  0  0  0
  4 33  1  0  0  0
 39 40  1  0  0  0
 39 41  2  0  0  0
 40 42  2  0  0  0
 41 43  1  0  0  0
 42 44  1  0  0  0
 43 44  2  0  0  0
 45 46  1  0  0  0
 45 47  2  0  0  0
 46 48  2  0  0  0
 47 49  1  0  0  0
 48 50  1  0  0  0
 49 50  2  0  0  0
  8 42  1  0  0  0
 45 12  1  0  0  0
  3 51  1  0  0  0
  5 52  1  0  0  0
  9 53  1  0  0  0
 13 54  1  0  0  0
 15 55  1  0  0  0
 16 56  1  0  0  0
 17 57  1  0  0  0
 18 58  1  0  0  0
 19 59  1  0  0  0
 21 60  1  0  0  0
 22 61  1  0  0  0
 23 62  1  0  0  0
 24 63  1  0  0  0
 30 64  1  0  0  0
 32 65  1  0  0  0
 33 66  1  0  0  0
 38 67  1  0  0  0
 39 68  1  0  0  0
 40 69  1  0  0  0
 41 70  1  0  0  0
 43 71  1  0  0  0
 44 72  1  0  0  0
 46 73  1  0  0  0
 47 74  1  0  0  0
 48 75  1  0  0  0
 49 76  1  0  0  0
 50 77  1  0  0  0
M  END
