DPACA-122
  MatStudio         3D                             0

 49 52  0  0  0  0  0  0  0  0999 V2000
   -7.0399    2.2838   -1.0345 C   0  0  0  0  0  0  0  0  0  1
   -6.7851    0.9529   -0.7130 C   0  0  0  0  0  0  0  0  0  2
   -5.4774    0.5038   -0.4411 C   0  0  0  0  0  0  0  0  0  3
   -4.3954    1.4071   -0.5095 C   0  0  0  0  0  0  0  0  0  4
   -4.6679    2.7450   -0.8287 C   0  0  0  0  0  0  0  0  0  5
   -5.9687    3.1743   -1.0843 C   0  0  0  0  0  0  0  0  0  6
   -2.9446    0.9859   -0.2643 C   0  0  0  0  0  0  0  0  0  7
   -2.8530   -0.5028    0.0851 C   0  0  0  0  0  0  0  0  0  8
   -3.9931   -1.3490    0.1373 C   0  0  0  0  0  0  0  0  0  9
   -5.2625   -0.8518   -0.1090 N   0  0  0  0  0  0  0  0  0 10
   -3.8250   -2.7253    0.4447 C   0  0  0  0  0  0  0  0  0 11
   -2.5795   -3.2615    0.6958 C   0  0  0  0  0  0  0  0  0 12
   -1.4217   -2.4415    0.6615 C   0  0  0  0  0  0  0  0  0 13
   -1.6141   -1.0693    0.3554 C   0  0  0  0  0  0  0  0  0 14
   -6.2881    5.0301   -1.5006 Br  0  0  0  0  0  0  0  0  0 15
   -2.1258    1.2463   -1.5552 C   0  0  0  0  0  0  0  0  0 16
   -2.3589    1.8233    0.8997 C   0  0  0  0  0  0  0  0  0 17
   -6.4073   -1.7194    0.0614 C   0  0  0  0  0  0  0  0  0 18
   -0.0837   -2.8757    0.9109 C   0  0  0  0  0  0  0  0  0 19
    0.4559   -4.1196    1.1825 C   0  0  0  0  0  0  0  0  0 20
    1.9174   -4.2084    1.4004 C   0  0  0  0  0  0  0  0  0 21
    2.6930   -3.2525    1.3909 O   0  0  0  0  0  0  0  0  0 22
    2.3301   -5.4857    1.6270 O   0  0  0  0  0  0  0  0  0 23
   -6.8617   -2.4976   -1.0083 C   0  0  0  0  0  0  0  0  0 24
   -7.9602   -3.3454   -0.8241 C   0  0  0  0  0  0  0  0  0 25
   -8.6001   -3.4072    0.4194 C   0  0  0  0  0  0  0  0  0 26
   -8.1415   -2.6208    1.4828 C   0  0  0  0  0  0  0  0  0 27
   -7.0422   -1.7741    1.3072 C   0  0  0  0  0  0  0  0  0 28
   -0.2921   -5.3226    1.2529 C   0  0  0  0  0  0  0  0  0 29
   -0.9061   -6.3226    1.3031 N   0  0  0  0  0  0  0  0  0 30
   -8.0576    2.6107   -1.2451 H   0  0  0  0  0  0  0  0  0 31
   -7.6187    0.2538   -0.6730 H   0  0  0  0  0  0  0  0  0 32
   -3.8512    3.4642   -0.8773 H   0  0  0  0  0  0  0  0  0 33
   -4.6975   -3.3752    0.4810 H   0  0  0  0  0  0  0  0  0 34
   -2.5053   -4.3238    0.9203 H   0  0  0  0  0  0  0  0  0 35
   -0.7279   -0.4321    0.3283 H   0  0  0  0  0  0  0  0  0 36
   -2.1644    2.3083   -1.8374 H   0  0  0  0  0  0  0  0  0 37
   -2.5159    0.6501   -2.3936 H   0  0  0  0  0  0  0  0  0 38
   -1.0703    0.9785   -1.4001 H   0  0  0  0  0  0  0  0  0 39
   -1.3100    1.5498    1.0839 H   0  0  0  0  0  0  0  0  0 40
   -2.9284    1.6600    1.8260 H   0  0  0  0  0  0  0  0  0 41
   -2.3836    2.8961    0.6603 H   0  0  0  0  0  0  0  0  0 42
    0.6723   -2.0855    0.8830 H   0  0  0  0  0  0  0  0  0 43
    3.3010   -5.4449    1.7654 H   0  0  0  0  0  0  0  0  0 44
   -6.3545   -2.4414   -1.9728 H   0  0  0  0  0  0  0  0  0 45
   -8.3142   -3.9575   -1.6555 H   0  0  0  0  0  0  0  0  0 46
   -9.4572   -4.0678    0.5617 H   0  0  0  0  0  0  0  0  0 47
   -8.6372   -2.6653    2.4541 H   0  0  0  0  0  0  0  0  0 48
   -6.6748   -1.1583    2.1301 H   0  0  0  0  0  0  0  0  0 49
  3  2  1  0  0  0
  4  3  2  0  0  0
  5  4  1  0  0  0
  6  5  2  0  0  0
  1  2  2  0  0  0
  1  6  1  0  0  0
  8  7  1  0  0  0
  9  8  1  0  0  0
 10  9  1  0  0  0
  4  7  1  0  0  0
  3 10  1  0  0  0
 12 11  1  0  0  0
 13 12  2  0  0  0
 14 13  1  0  0  0
  9 11  2  0  0  0
  8 14  2  0  0  0
  6 15  1  0  0  0
  7 16  1  0  0  0
  7 17  1  0  0  0
 10 18  1  0  0  0
 13 19  1  0  0  0
 19 20  2  0  0  0
 20 21  1  0  0  0
 21 22  2  0  0  0
 21 23  1  0  0  0
 25 24  2  0  0  0
 26 25  1  0  0  0
 27 26  2  0  0  0
 28 27  1  0  0  0
 18 24  1  0  0  0
 18 28  2  0  0  0
 20 29  1  0  0  0
 29 30  3  0  0  0
  1 31  1  0  0  0
  2 32  1  0  0  0
  5 33  1  0  0  0
 11 34  1  0  0  0
 12 35  1  0  0  0
 14 36  1  0  0  0
 16 37  1  0  0  0
 16 38  1  0  0  0
 16 39  1  0  0  0
 17 40  1  0  0  0
 17 41  1  0  0  0
 17 42  1  0  0  0
 19 43  1  0  0  0
 23 44  1  0  0  0
 24 45  1  0  0  0
 25 46  1  0  0  0
 26 47  1  0  0  0
 27 48  1  0  0  0
 28 49  1  0  0  0
M  END
