Phenothiazine2-2
  MatStudio         3D                             0

 36 38  0  0  0  0  0  0  0  0999 V2000
   -5.1609    0.2792    2.1824 C   0  0  0  0  0  0  0  0  0  1
   -4.6228   -0.7847    1.4524 C   0  0  0  0  0  0  0  0  0  2
   -3.7037   -0.5205    0.4314 C   0  0  0  0  0  0  0  0  0  3
   -3.3554    0.7988    0.1215 C   0  0  0  0  0  0  0  0  0  4
   -3.8904    1.8800    0.8526 C   0  0  0  0  0  0  0  0  0  5
   -4.7907    1.5971    1.8949 C   0  0  0  0  0  0  0  0  0  6
   -3.5014    3.2090    0.5419 N   0  0  0  0  0  0  0  0  0  7
   -2.1600    3.4653    0.2234 C   0  0  0  0  0  0  0  0  0  8
   -1.4330    2.5383   -0.5700 C   0  0  0  0  0  0  0  0  0  9
   -2.2784    1.1346   -1.2459 S   0  0  0  0  0  0  0  0  0 10
   -0.1023    2.7617   -0.9025 C   0  0  0  0  0  0  0  0  0 11
    0.5646    3.9386   -0.4916 C   0  0  0  0  0  0  0  0  0 12
   -0.1589    4.8533    0.3010 C   0  0  0  0  0  0  0  0  0 13
   -1.4831    4.6212    0.6624 C   0  0  0  0  0  0  0  0  0 14
   -4.3821    4.3196    0.9508 C   0  0  0  0  0  0  0  0  0 15
   -5.7457    4.2595    0.2637 C   0  0  0  0  0  0  0  0  0 16
    1.9420    4.2325   -0.8326 C   0  0  0  0  0  0  0  0  0 17
    2.7764    3.4884   -1.6054 C   0  0  0  0  0  0  0  0  0 18
    4.1517    3.9125   -1.8525 C   0  0  0  0  0  0  0  0  0 19
    4.7020    4.9336   -1.4246 O   0  0  0  0  0  0  0  0  0 20
    4.8177    3.0195   -2.6516 O   0  0  0  0  0  0  0  0  0 21
   -5.8679    0.0904    2.9925 H   0  0  0  0  0  0  0  0  0 22
   -4.9055   -1.8137    1.6789 H   0  0  0  0  0  0  0  0  0 23
   -3.2580   -1.3370   -0.1401 H   0  0  0  0  0  0  0  0  0 24
   -5.2057    2.4094    2.4908 H   0  0  0  0  0  0  0  0  0 25
    0.4136    2.0168   -1.5106 H   0  0  0  0  0  0  0  0  0 26
    0.3354    5.7609    0.6542 H   0  0  0  0  0  0  0  0  0 27
   -1.9877    5.3411    1.3052 H   0  0  0  0  0  0  0  0  0 28
   -3.8849    5.2468    0.6459 H   0  0  0  0  0  0  0  0  0 29
   -4.4842    4.3613    2.0485 H   0  0  0  0  0  0  0  0  0 30
   -6.3455    5.1253    0.5813 H   0  0  0  0  0  0  0  0  0 31
   -6.3061    3.3496    0.5173 H   0  0  0  0  0  0  0  0  0 32
   -5.6258    4.3032   -0.8284 H   0  0  0  0  0  0  0  0  0 33
    2.3476    5.1581   -0.4123 H   0  0  0  0  0  0  0  0  0 34
    5.7254    3.3744   -2.7659 H   0  0  0  0  0  0  0  0  0 35
    2.4628    2.5519   -2.0682 H   0  0  0  0  0  0  0  0  0 36
  3  2  1  0  0  0
  4  3  2  0  0  0
  5  4  1  0  0  0
  6  5  2  0  0  0
  1  2  2  0  0  0
  1  6  1  0  0  0
  8  7  1  0  0  0
  9  8  2  0  0  0
 10  9  1  0  0  0
  5  7  1  0  0  0
  4 10  1  0  0  0
 12 11  2  0  0  0
 13 12  1  0  0  0
 14 13  2  0  0  0
  9 11  1  0  0  0
  8 14  1  0  0  0
  7 15  1  0  0  0
 15 16  1  0  0  0
 12 17  1  0  0  0
 17 18  2  0  0  0
 18 19  1  0  0  0
 19 20  2  0  0  0
 19 21  1  0  0  0
  1 22  1  0  0  0
  2 23  1  0  0  0
  3 24  1  0  0  0
  6 25  1  0  0  0
 11 26  1  0  0  0
 13 27  1  0  0  0
 14 28  1  0  0  0
 15 29  1  0  0  0
 15 30  1  0  0  0
 16 31  1  0  0  0
 16 32  1  0  0  0
 16 33  1  0  0  0
 17 34  1  0  0  0
 21 35  1  0  0  0
 18 36  1  0  0  0
M  END
