10b-23879
  MatStudio         3D                             0

 64 69  0  0  0  0  0  0  0  0999 V2000
   11.1664  -11.0714   -4.6212 C   0  0  0  0  0  0  0  0  0  1
    9.6253  -11.2437   -5.4183 S   0  0  0  0  0  0  0  0  0  2
   12.1891  -11.5723   -5.4213 C   0  0  0  0  0  0  0  0  0  3
   10.3522  -11.9696   -6.7952 C   0  0  0  0  0  0  0  0  0  4
   11.7221  -12.0787   -6.6580 C   0  0  0  0  0  0  0  0  0  5
    8.6186   -9.1757   -1.1645 C   0  0  0  0  0  0  0  0  0  6
    7.2587   -9.7036   -2.1205 S   0  0  0  0  0  0  0  0  0  7
    8.1821   -8.5302   -0.0110 C   0  0  0  0  0  0  0  0  0  8
    6.1377   -9.0706   -0.9832 C   0  0  0  0  0  0  0  0  0  9
    6.7719   -8.4707    0.0876 C   0  0  0  0  0  0  0  0  0 10
   26.8028  -16.4018    2.3455 N   0  0  0  0  0  0  0  0  0 11
   13.5665   -9.3756   -0.5577 C   0  0  0  0  0  0  0  0  0 12
   11.2611  -10.4744   -3.3080 C   0  0  0  0  0  0  0  0  0 13
   12.4099  -10.2523   -2.6029 C   0  0  0  0  0  0  0  0  0 14
   10.0231  -10.1171   -2.8007 O   0  0  0  0  0  0  0  0  0 15
   12.4071   -9.5812   -1.3305 C   0  0  0  0  0  0  0  0  0 16
    9.9732   -9.4484   -1.5890 C   0  0  0  0  0  0  0  0  0 17
   11.1085   -9.1402   -0.8961 C   0  0  0  0  0  0  0  0  0 18
   13.5626   -8.3485    0.5140 C   0  0  0  0  0  0  0  0  0 19
   13.1059   -7.0366    0.2658 C   0  0  0  0  0  0  0  0  0 20
   14.0176   -8.6565    1.8139 C   0  0  0  0  0  0  0  0  0 21
   13.0953   -6.0740    1.2791 C   0  0  0  0  0  0  0  0  0 22
   14.0030   -7.6963    2.8283 C   0  0  0  0  0  0  0  0  0 23
   13.5414   -6.3999    2.5655 C   0  0  0  0  0  0  0  0  0 24
   14.7687  -10.1895   -0.7090 C   0  0  0  0  0  0  0  0  0 25
   14.7062  -11.5608   -1.0781 C   0  0  0  0  0  0  0  0  0 26
   16.0533   -9.6722   -0.3905 C   0  0  0  0  0  0  0  0  0 27
   15.8340  -12.3652   -1.0979 C   0  0  0  0  0  0  0  0  0 28
   17.1899  -10.4661   -0.4110 C   0  0  0  0  0  0  0  0  0 29
   17.1042  -11.8422   -0.7443 C   0  0  0  0  0  0  0  0  0 30
   18.2263  -12.6847   -0.6464 C   0  0  0  0  0  0  0  0  0 31
   19.1803  -13.4484   -0.4894 C   0  0  0  0  0  0  0  0  0 32
   20.2471  -14.3018   -0.2225 C   0  0  0  0  0  0  0  0  0 33
   21.6642  -13.7369    0.6223 S   0  0  0  0  0  0  0  0  0 34
   20.3522  -15.6771   -0.4977 C   0  0  0  0  0  0  0  0  0 35
   22.3690  -15.3423    0.6536 C   0  0  0  0  0  0  0  0  0 36
   21.5237  -16.2539   -0.0070 C   0  0  0  0  0  0  0  0  0 37
   23.6564  -15.4966    1.2401 C   0  0  0  0  0  0  0  0  0 38
   24.2881  -16.6303    1.7380 C   0  0  0  0  0  0  0  0  0 39
   25.6673  -16.5115    2.0676 C   0  0  0  0  0  0  0  0  0 40
   23.7252  -17.9679    2.0475 C   0  0  0  0  0  0  0  0  0 41
   24.4308  -18.9654    2.1846 O   0  0  0  0  0  0  0  0  0 42
   22.3850  -18.0791    2.2463 O   0  0  0  0  0  0  0  0  0 43
   13.2365  -11.5720   -5.1233 H   0  0  0  0  0  0  0  0  0 44
    9.7268  -12.2766   -7.6305 H   0  0  0  0  0  0  0  0  0 45
   12.3694  -12.5137   -7.4185 H   0  0  0  0  0  0  0  0  0 46
    8.8592   -8.1242    0.7393 H   0  0  0  0  0  0  0  0  0 47
    5.0711   -9.1786   -1.1683 H   0  0  0  0  0  0  0  0  0 48
    6.2398   -8.0065    0.9169 H   0  0  0  0  0  0  0  0  0 49
   13.3511  -10.5399   -3.0666 H   0  0  0  0  0  0  0  0  0 50
   10.9989   -8.6256    0.0556 H   0  0  0  0  0  0  0  0  0 51
   12.7736   -6.7686   -0.7394 H   0  0  0  0  0  0  0  0  0 52
   14.3658   -9.6682    2.0338 H   0  0  0  0  0  0  0  0  0 53
   12.7453   -5.0630    1.0590 H   0  0  0  0  0  0  0  0  0 54
   14.3440   -7.9633    3.8307 H   0  0  0  0  0  0  0  0  0 55
   13.5314   -5.6492    3.3579 H   0  0  0  0  0  0  0  0  0 56
   13.7385  -12.0209   -1.2806 H   0  0  0  0  0  0  0  0  0 57
   16.1501   -8.6207   -0.1162 H   0  0  0  0  0  0  0  0  0 58
   15.7418  -13.4242   -1.3421 H   0  0  0  0  0  0  0  0  0 59
   18.1589  -10.0367   -0.1524 H   0  0  0  0  0  0  0  0  0 60
   19.5852  -16.2149   -1.0506 H   0  0  0  0  0  0  0  0  0 61
   21.7864  -17.2967   -0.1761 H   0  0  0  0  0  0  0  0  0 62
   24.2490  -14.5791    1.3005 H   0  0  0  0  0  0  0  0  0 63
   21.9467  -17.2030    2.1904 H   0  0  0  0  0  0  0  0  0 64
  1  2  1  0  0  0
  1  3  2  0  0  0
  2  4  1  0  0  0
  3  5  1  0  0  0
  4  5  2  0  0  0
  6  7  1  0  0  0
  6  8  2  0  0  0
  7  9  1  0  0  0
  8 10  1  0  0  0
  9 10  2  0  0  0
 13 14  2  0  0  0
 13 15  1  0  0  0
 14 16  1  0  0  0
 15 17  1  0  0  0
 16 18  1  0  0  0
 17 18  2  0  0  0
 12 16  2  0  0  0
 19 20  1  0  0  0
 19 21  2  0  0  0
 20 22  2  0  0  0
 21 23  1  0  0  0
 22 24  1  0  0  0
 23 24  2  0  0  0
 12 19  1  0  0  0
 25 26  1  0  0  0
 25 27  2  0  0  0
 26 28  2  0  0  0
 27 29  1  0  0  0
 28 30  1  0  0  0
 29 30  2  0  0  0
 12 25  1  0  0  0
 30 31  1  0  0  0
 31 32  3  0  0  0
 33 34  1  0  0  0
 33 35  2  0  0  0
 34 36  1  0  0  0
 35 37  1  0  0  0
 36 37  2  0  0  0
 32 33  1  0  0  0
 36 38  1  0  0  0
 38 39  2  0  0  0
 39 40  1  0  0  0
 39 41  1  0  0  0
 11 40  3  0  0  0
 41 42  2  0  0  0
 41 43  1  0  0  0
 13  1  1  0  0  0
 17  6  1  0  0  0
  3 44  1  0  0  0
  4 45  1  0  0  0
  5 46  1  0  0  0
  8 47  1  0  0  0
  9 48  1  0  0  0
 10 49  1  0  0  0
 14 50  1  0  0  0
 18 51  1  0  0  0
 20 52  1  0  0  0
 21 53  1  0  0  0
 22 54  1  0  0  0
 23 55  1  0  0  0
 24 56  1  0  0  0
 26 57  1  0  0  0
 27 58  1  0  0  0
 28 59  1  0  0  0
 29 60  1  0  0  0
 35 61  1  0  0  0
 37 62  1  0  0  0
 38 63  1  0  0  0
 43 64  1  0  0  0
M  END
