12b-12270
  MatStudio         3D                             0

 58 63  0  0  0  0  0  0  0  0999 V2000
   16.4603  -11.3773    0.5179 C   0  0  0  0  0  0  0  0  0  1
   15.0236  -11.4153    1.5202 S   0  0  0  0  0  0  0  0  0  2
   16.2061  -10.6857   -0.6691 C   0  0  0  0  0  0  0  0  0  3
   14.0890  -10.5539    0.3309 C   0  0  0  0  0  0  0  0  0  4
   14.8740  -10.2296   -0.7665 C   0  0  0  0  0  0  0  0  0  5
   25.8964  -16.6631   -0.9044 N   0  0  0  0  0  0  0  0  0  6
   12.6418  -10.3039    0.5364 C   0  0  0  0  0  0  0  0  0  7
   11.7544  -14.9339   -1.0560 C   0  0  0  0  0  0  0  0  0  8
   11.3687  -13.5948   -0.6702 C   0  0  0  0  0  0  0  0  0  9
   12.2194  -12.5772   -0.3551 C   0  0  0  0  0  0  0  0  0 10
    9.9933  -13.4336   -0.6199 O   0  0  0  0  0  0  0  0  0 11
   11.7488  -11.2946    0.1058 C   0  0  0  0  0  0  0  0  0 12
    9.4961  -12.1782   -0.3204 C   0  0  0  0  0  0  0  0  0 13
   10.3156  -11.1504    0.0490 C   0  0  0  0  0  0  0  0  0 14
    8.0571  -12.1275   -0.4606 C   0  0  0  0  0  0  0  0  0 15
   17.6194  -12.0630    0.8775 C   0  0  0  0  0  0  0  0  0 16
   18.6293  -12.7182    1.1397 C   0  0  0  0  0  0  0  0  0 17
   19.7388  -13.5313    1.3581 C   0  0  0  0  0  0  0  0  0 18
   21.0009  -13.6425    0.1721 S   0  0  0  0  0  0  0  0  0 19
   20.0010  -14.3871    2.4459 C   0  0  0  0  0  0  0  0  0 20
   21.8765  -14.8481    1.1099 C   0  0  0  0  0  0  0  0  0 21
   21.1838  -15.1134    2.3070 C   0  0  0  0  0  0  0  0  0 22
   23.0582  -15.3406    0.5031 C   0  0  0  0  0  0  0  0  0 23
   23.9964  -16.3153    0.8349 C   0  0  0  0  0  0  0  0  0 24
   25.0419  -16.5119   -0.1139 C   0  0  0  0  0  0  0  0  0 25
   24.0231  -17.1717    2.0302 C   0  0  0  0  0  0  0  0  0 26
   23.2302  -17.1398    2.9717 O   0  0  0  0  0  0  0  0  0 27
   25.0650  -18.0516    1.9928 O   0  0  0  0  0  0  0  0  0 28
   12.3187   -9.0445    1.1778 C   0  0  0  0  0  0  0  0  0 29
   10.8019   -8.6942    1.9977 S   0  0  0  0  0  0  0  0  0 30
   13.1809   -7.9559    1.3431 C   0  0  0  0  0  0  0  0  0 31
   11.3370   -7.1385    2.5083 C   0  0  0  0  0  0  0  0  0 32
   12.6222   -6.8822    2.0783 C   0  0  0  0  0  0  0  0  0 33
   16.9650  -10.5518   -1.4388 H   0  0  0  0  0  0  0  0  0 34
   14.4771   -9.6912   -1.6268 H   0  0  0  0  0  0  0  0  0 35
   13.2870  -12.7728   -0.4212 H   0  0  0  0  0  0  0  0  0 36
    9.8472  -10.1866    0.2404 H   0  0  0  0  0  0  0  0  0 37
   19.3269  -14.4630    3.2970 H   0  0  0  0  0  0  0  0  0 38
   21.5543  -15.8313    3.0318 H   0  0  0  0  0  0  0  0  0 39
   23.2768  -14.8590   -0.4546 H   0  0  0  0  0  0  0  0  0 40
   25.0137  -18.5785    2.8192 H   0  0  0  0  0  0  0  0  0 41
   14.1886   -7.9468    0.9305 H   0  0  0  0  0  0  0  0  0 42
   10.6683   -6.5045    3.0859 H   0  0  0  0  0  0  0  0  0 43
   13.1479   -5.9507    2.2860 H   0  0  0  0  0  0  0  0  0 44
   13.0330  -15.4641   -1.1924 C   0  0  0  0  0  0  0  0  0 45
   13.0270  -16.8260   -1.5800 C   0  0  0  0  0  0  0  0  0 46
   11.7503  -17.3277   -1.7416 C   0  0  0  0  0  0  0  0  0 47
   10.5504  -16.1425   -1.4155 S   0  0  0  0  0  0  0  0  0 48
    7.2051  -13.1516   -0.8586 C   0  0  0  0  0  0  0  0  0 49
    5.8435  -12.7566   -0.8935 C   0  0  0  0  0  0  0  0  0 50
    5.6638  -11.4399   -0.5227 C   0  0  0  0  0  0  0  0  0 51
    7.1525  -10.6752   -0.1269 S   0  0  0  0  0  0  0  0  0 52
   13.9421  -14.8923   -1.0143 H   0  0  0  0  0  0  0  0  0 53
   13.9276  -17.4176   -1.7371 H   0  0  0  0  0  0  0  0  0 54
   11.4466  -18.3313   -2.0296 H   0  0  0  0  0  0  0  0  0 55
    7.5580  -14.1481   -1.1178 H   0  0  0  0  0  0  0  0  0 56
    5.0254  -13.4133   -1.1859 H   0  0  0  0  0  0  0  0  0 57
    4.7401  -10.8693   -0.4550 H   0  0  0  0  0  0  0  0  0 58
  1  2  1  0  0  0
  1  3  2  0  0  0
  2  4  1  0  0  0
  3  5  1  0  0  0
  4  5  2  0  0  0
  9 10  2  0  0  0
  9 11  1  0  0  0
 10 12  1  0  0  0
 11 13  1  0  0  0
 12 14  1  0  0  0
 13 14  2  0  0  0
  8  9  1  0  0  0
 13 15  1  0  0  0
  7 12  2  0  0  0
 16 17  3  0  0  0
 18 19  1  0  0  0
 18 20  2  0  0  0
 19 21  1  0  0  0
 20 22  1  0  0  0
 21 22  2  0  0  0
 17 18  1  0  0  0
 21 23  1  0  0  0
 23 24  2  0  0  0
 24 25  1  0  0  0
 24 26  1  0  0  0
  6 25  3  0  0  0
 26 27  2  0  0  0
 26 28  1  0  0  0
 16  1  1  0  0  0
  7  4  1  0  0  0
 29 30  1  0  0  0
 29 31  2  0  0  0
 30 32  1  0  0  0
 31 33  1  0  0  0
 32 33  2  0  0  0
  7 29  1  0  0  0
  3 34  1  0  0  0
  5 35  1  0  0  0
 10 36  1  0  0  0
 14 37  1  0  0  0
 20 38  1  0  0  0
 22 39  1  0  0  0
 23 40  1  0  0  0
 28 41  1  0  0  0
 31 42  1  0  0  0
 32 43  1  0  0  0
 33 44  1  0  0  0
 46 45  1  0  0  0
 47 46  2  0  0  0
 48 47  1  0  0  0
  8 45  2  0  0  0
  8 48  1  0  0  0
 50 49  1  0  0  0
 51 50  2  0  0  0
 52 51  1  0  0  0
 15 49  2  0  0  0
 15 52  1  0  0  0
 45 53  1  0  0  0
 46 54  1  0  0  0
 47 55  1  0  0  0
 49 56  1  0  0  0
 50 57  1  0  0  0
 51 58  1  0  0  0
M  END
