AKSq2
  MatStudio         3D                             0

 56 58  0  0  0  0  0  0  0  0999 V2000
   15.2037  -11.9543   -0.6786 C   0  0  0  0  0  0  0  0  0  1
   14.7986  -10.4826   -0.7479 C   0  0  0  0  0  0  0  0  0  2
   14.9216   -9.7803    0.6098 C   0  0  0  0  0  0  0  0  0  3
   14.1135   -5.6722   -1.3561 C   0  0  0  0  0  0  0  0  0  4
   14.5157   -4.8828    1.0297 C   0  0  0  0  0  0  0  0  0  5
   17.5192   -6.2210    0.1686 C   0  0  0  0  0  0  0  0  0  6
   16.5540   -7.2675    0.2943 C   0  0  0  0  0  0  0  0  0  7
   12.8709   -6.7357    0.5320 C   0  0  0  0  0  0  0  0  0  8
   13.0729   -8.1092    0.7279 C   0  0  0  0  0  0  0  0  0  9
   11.6042   -6.1892    0.6874 C   0  0  0  0  0  0  0  0  0 10
   12.0200   -8.9686    1.0594 C   0  0  0  0  0  0  0  0  0 11
   10.5327   -7.0307    1.0416 C   0  0  0  0  0  0  0  0  0 12
   10.7462   -8.4030    1.2201 C   0  0  0  0  0  0  0  0  0 13
   14.1866   -6.0900    0.1343 C   0  0  0  0  0  0  0  0  0 14
   15.1754   -7.2565    0.3005 C   0  0  0  0  0  0  0  0  0 15
   14.4310   -8.4067    0.5664 N   0  0  0  0  0  0  0  0  0 16
   17.6410   -4.8933   -0.4466 C   0  0  0  0  0  0  0  0  0 17
   19.0450   -4.8001    0.0895 C   0  0  0  0  0  0  0  0  0 18
   18.8794   -6.1645    0.7011 C   0  0  0  0  0  0  0  0  0 19
   19.9538   -3.9695   -0.0377 O   0  0  0  0  0  0  0  0  0 21
   16.9517   -4.1337   -1.1675 O   0  5  0  0  0  0  0  0  0 22
   16.2553  -12.0696   -0.3750 H   0  0  0  0  0  0  0  0  0  0
   15.0805  -12.4407   -1.6568 H   0  0  0  0  0  0  0  0  0  0
   14.5823  -12.5004    0.0478 H   0  0  0  0  0  0  0  0  0  0
   15.4191   -9.9472   -1.4833 H   0  0  0  0  0  0  0  0  0  0
   13.7552  -10.3975   -1.0920 H   0  0  0  0  0  0  0  0  0  0
   14.3412  -10.3187    1.3749 H   0  0  0  0  0  0  0  0  0  0
   15.9628   -9.7845    0.9617 H   0  0  0  0  0  0  0  0  0  0
   13.3087   -4.9330   -1.4863 H   0  0  0  0  0  0  0  0  0  0
   13.8860   -6.5409   -1.9915 H   0  0  0  0  0  0  0  0  0  0
   15.0668   -5.2222   -1.6635 H   0  0  0  0  0  0  0  0  0  0
   15.4404   -4.3960    0.7009 H   0  0  0  0  0  0  0  0  0  0
   14.6185   -5.1891    2.0805 H   0  0  0  0  0  0  0  0  0  0
   13.7010   -4.1460    0.9630 H   0  0  0  0  0  0  0  0  0  0
   16.9961   -8.2344    0.5367 H   0  0  0  0  0  0  0  0  0  0
   11.4365   -5.1193    0.5419 H   0  0  0  0  0  0  0  0  0  0
   12.1725  -10.0391    1.2020 H   0  0  0  0  0  0  0  0  0  0
    9.5356   -6.6110    1.1807 H   0  0  0  0  0  0  0  0  0  0
    9.9104   -9.0498    1.4940 H   0  0  0  0  0  0  0  0  0  0
   19.7149   -7.0371    1.3873 C   0  0  0  0  0  0  0  0  0  0
   20.9008   -6.5815    2.0925 C   0  0  0  0  0  0  0  0  0  0
   20.8601   -5.2460    2.4206 O   0  0  0  0  0  0  0  0  0  0
   22.0425   -4.7138    3.0730 C   0  0  0  0  0  0  0  0  0  0
   21.7463   -3.2738    3.4405 C   0  0  0  0  0  0  0  0  0  0
   19.4399   -8.5189    1.4654 C   0  0  0  0  0  0  0  0  0  0
   18.6917   -8.8947    2.6942 N   0  0  0  0  0  0  0  0  0  0
   21.8554   -7.3027    2.4466 O   0  0  0  0  0  0  0  0  0  0
   22.8995   -4.7908    2.3861 H   0  0  0  0  0  0  0  0  0  0
   22.2682   -5.3223    3.9615 H   0  0  0  0  0  0  0  0  0  0
   21.5089   -2.6812    2.5456 H   0  0  0  0  0  0  0  0  0  0
   22.6232   -2.8257    3.9312 H   0  0  0  0  0  0  0  0  0  0
   20.8959   -3.2116    4.1351 H   0  0  0  0  0  0  0  0  0  0
   20.4092   -9.0388    1.5063 H   0  0  0  0  0  0  0  0  0  0
   18.9435   -8.8517    0.5350 H   0  0  0  0  0  0  0  0  0  0
   18.4511   -9.8906    2.6440 H   0  0  0  0  0  0  0  0  0  0
   17.7950   -8.3991    2.6931 H   0  0  0  0  0  0  0  0  0  0
  8 10  2  0  0  0
  9 11  2  0  0  0
 10 12  1  0  0  0
 11 13  1  0  0  0
 12 13  2  0  0  0
  8 14  1  0  0  0
  8  9  1  0  0  0
 14 15  1  0  0  0
  9 16  1  0  0  0
 15 16  1  0  0  0
  7 15  2  0  0  0
  6  7  1  0  0  0
  6 17  2  0  0  0
 17 18  1  0  0  0
 18 19  1  0  0  0
 19  6  1  0  0  0
  5 14  1  0  0  0
  4 14  1  0  0  0
  3 16  1  0  0  0
  2  3  1  0  0  0
  1  2  1  0  0  0
 18 20  2  0  0  0
 17 21  1  0  0  0
  1 22  1  0  0  0
  1 23  1  0  0  0
  1 24  1  0  0  0
  2 25  1  0  0  0
  2 26  1  0  0  0
  3 27  1  0  0  0
  3 28  1  0  0  0
  4 29  1  0  0  0
  4 30  1  0  0  0
  4 31  1  0  0  0
  5 32  1  0  0  0
  5 33  1  0  0  0
  5 34  1  0  0  0
  7 35  1  0  0  0
 10 36  1  0  0  0
 11 37  1  0  0  0
 12 38  1  0  0  0
 13 39  1  0  0  0
 19 40  2  0  0  0
 40 41  1  0  0  0
 41 42  1  0  0  0
 42 43  1  0  0  0
 43 44  1  0  0  0
 40 45  1  0  0  0
 45 46  1  0  0  0
 41 47  2  0  0  0
 43 48  1  0  0  0
 43 49  1  0  0  0
 44 50  1  0  0  0
 44 51  1  0  0  0
 44 52  1  0  0  0
 45 53  1  0  0  0
 45 54  1  0  0  0
 46 55  1  0  0  0
 46 56  1  0  0  0
M  END
