AKSq4
  MatStudio         3D                             0

 49 52  0  0  0  0  0  0  0  0999 V2000
   -5.5682    0.8333    1.9817 C   0  0  0  0  0  0  0  0  0  0
   -4.7769   -0.2896    2.2274 C   0  0  0  0  0  0  0  0  0  0
   -3.4741   -0.3478    1.6926 C   0  0  0  0  0  0  0  0  0  0
   -3.0129    0.7560    0.9236 C   0  0  0  0  0  0  0  0  0  0
   -3.8003    1.8819    0.6695 C   0  0  0  0  0  0  0  0  0  0
   -5.0895    1.9064    1.2072 C   0  0  0  0  0  0  0  0  0  0
   -1.7080    0.5047    0.4829 N   0  0  0  0  0  0  0  0  0  0
   -1.3357   -0.7302    0.9683 C   0  0  0  0  0  0  0  0  0  0
   -2.3994   -1.3158    1.7087 C   0  0  0  0  0  0  0  0  0  0
   -2.2798   -2.6396    2.2421 C   0  0  0  0  0  0  0  0  0  0
   -1.0240   -3.2760    1.9780 C   0  0  0  0  0  0  0  0  0  0
   -0.0198   -2.6416    1.3072 C   0  0  0  0  0  0  0  0  0  0
   -0.1298   -1.3630    0.8009 N   0  0  0  0  0  0  0  0  0  0
   -3.3213   -3.2776    2.9531 C   0  0  0  0  0  0  0  0  0  0
   -3.3433   -4.5774    3.4582 C   0  0  0  0  0  0  0  0  0  0
   -2.5088   -5.8235    3.5466 C   0  0  0  0  0  0  0  0  0  0
   -3.6308   -6.5165    4.2997 C   0  0  0  0  0  0  0  0  0  0
   -4.3757   -5.2658    4.1641 C   0  0  0  0  0  0  0  0  0  0
   -1.3853   -6.1790    3.1697 O   0  0  0  0  0  0  0  0  0  0
   -3.8042   -7.6476    4.7885 O   0  0  0  0  0  0  0  0  0  0
   -5.5694   -4.7997    4.5062 O   0  0  0  0  0  0  0  0  0  0
   -6.4418   -5.7256    5.2605 C   0  0  0  0  0  0  0  0  0  0
   -7.7273   -4.9936    5.5563 C   0  0  0  0  0  0  0  0  0  0
    1.0531   -0.7858    0.1423 C   0  0  0  0  0  0  0  0  0  0
   -1.0044    1.4495   -0.3970 C   0  0  0  0  0  0  0  0  0  0
   -0.3106    2.5926    0.3466 C   0  0  0  0  0  0  0  0  0  0
    0.3535    3.5622   -0.6306 C   0  0  0  0  0  0  0  0  0  0
   -6.5751    0.8780    2.4001 H   0  0  0  0  0  0  0  0  0  0
   -5.1819   -1.0993    2.8306 H   0  0  0  0  0  0  0  0  0  0
   -3.4315    2.7189    0.0775 H   0  0  0  0  0  0  0  0  0  0
   -5.7261    2.7738    1.0290 H   0  0  0  0  0  0  0  0  0  0
   -0.8461   -4.2931    2.3287 H   0  0  0  0  0  0  0  0  0  0
    0.9443   -3.1130    1.1318 H   0  0  0  0  0  0  0  0  0  0
   -4.2353   -2.7112    3.1261 H   0  0  0  0  0  0  0  0  0  0
   -5.9083   -6.0163    6.1752 H   0  0  0  0  0  0  0  0  0  0
   -6.6059   -6.6163    4.6399 H   0  0  0  0  0  0  0  0  0  0
   -8.3963   -5.6557    6.1247 H   0  0  0  0  0  0  0  0  0  0
   -8.2367   -4.7012    4.6278 H   0  0  0  0  0  0  0  0  0  0
   -7.5413   -4.0932    6.1596 H   0  0  0  0  0  0  0  0  0  0
    0.9582   -0.8268   -0.9503 H   0  0  0  0  0  0  0  0  0  0
    1.9193   -1.3797    0.4474 H   0  0  0  0  0  0  0  0  0  0
    1.2143    0.2443    0.4739 H   0  0  0  0  0  0  0  0  0  0
   -1.7619    1.8556   -1.0830 H   0  0  0  0  0  0  0  0  0  0
   -0.3026    0.8955   -1.0269 H   0  0  0  0  0  0  0  0  0  0
    0.4357    2.1859    1.0486 H   0  0  0  0  0  0  0  0  0  0
   -1.0529    3.1238    0.9620 H   0  0  0  0  0  0  0  0  0  0
   -0.3848    3.9914   -1.3257 H   0  0  0  0  0  0  0  0  0  0
    1.1258    3.0579   -1.2312 H   0  0  0  0  0  0  0  0  0  0
    0.8338    4.3929   -0.0939 H   0  0  0  0  0  0  0  0  0  0
  3  2  1  0  0  0
  4  3  2  0  0  0
  5  4  1  0  0  0
  6  5  2  0  0  0
  1  2  2  0  0  0
  1  6  1  0  0  0
  8  7  1  0  0  0
  9  8  2  0  0  0
  4  7  1  0  0  0
  3  9  1  0  0  0
 11 10  1  0  0  0
 12 11  2  0  0  0
 13 12  1  0  0  0
  9 10  1  0  0  0
  8 13  1  0  0  0
 10 14  2  0  0  0
 14 15  1  0  0  0
 15 16  1  0  0  0
 16 17  1  0  0  0
 17 18  1  0  0  0
 15 18  2  0  0  0
 16 19  2  0  0  0
 17 20  2  0  0  0
 18 21  1  0  0  0
 21 22  1  0  0  0
 22 23  1  0  0  0
 13 24  1  0  0  0
  7 25  1  0  0  0
 25 26  1  0  0  0
 26 27  1  0  0  0
  1 28  1  0  0  0
  2 29  1  0  0  0
  5 30  1  0  0  0
  6 31  1  0  0  0
 11 32  1  0  0  0
 12 33  1  0  0  0
 14 34  1  0  0  0
 22 35  1  0  0  0
 22 36  1  0  0  0
 23 37  1  0  0  0
 23 38  1  0  0  0
 23 39  1  0  0  0
 24 40  1  0  0  0
 24 41  1  0  0  0
 24 42  1  0  0  0
 25 43  1  0  0  0
 25 44  1  0  0  0
 26 45  1  0  0  0
 26 46  1  0  0  0
 27 47  1  0  0  0
 27 48  1  0  0  0
 27 49  1  0  0  0
M  END
