Beetroot-15072
  MatStudio         3D                             0

 65 68  0  0  0  0  0  0  0  0999 V2000
    6.8256   -5.6381    2.5860 O   0  0  0  0  0  0  0  0  0  1
    7.1462   -3.8754    1.1324 O   0  0  0  0  0  0  0  0  0  2
    7.0662   -8.4052   -0.4321 O   0  0  0  0  0  0  0  0  0  3
    5.7676   -9.1444    2.0798 O   0  0  0  0  0  0  0  0  0  4
    6.7910   -5.6327   -1.0618 O   0  0  0  0  0  0  0  0  0  5
    5.4292   -8.2493    4.6843 O   0  0  0  0  0  0  0  0  0  6
    6.3487   -1.8611   -0.5000 O   0  0  0  0  0  0  0  0  0  7
    1.7683   -1.8931    5.5027 O   0  5  0  0  0  0  0  0  0  8
    1.4330   -1.0967    3.3847 O   0  0  0  0  0  0  0  0  0  9
    4.8267    1.8718    8.9462 O   0  0  0  0  0  0  0  0  0 10
    5.7300    3.2533    7.4420 O   0  0  0  0  0  0  0  0  0 11
   -0.6095    4.7878    6.3831 O   0  0  0  0  0  0  0  0  0 12
    0.4083    4.6797    8.4200 O   0  0  0  0  0  0  0  0  0 13
    3.9044    0.0677    3.2980 N   0  3  0  0  0  0  0  0  0 14
    2.5407    3.4042    7.3647 N   0  0  0  0  0  0  0  0  0 15
    6.4405   -7.4910    0.4829 C   0  0  0  0  0  0  0  0  0 16
    6.5534   -7.9515    1.9368 C   0  0  0  0  0  0  0  0  0 17
    7.0906   -6.1240    0.2484 C   0  0  0  0  0  0  0  0  0 18
    6.0659   -6.8309    2.8662 C   0  0  0  0  0  0  0  0  0 19
    6.5298   -5.1530    1.2766 C   0  0  0  0  0  0  0  0  0 20
    3.5144   -0.5670    4.5793 C   0  0  0  0  0  0  0  0  0 21
    4.6379   -1.5721    4.8667 C   0  0  0  0  0  0  0  0  0 22
    5.2176   -1.8045    3.5043 C   0  0  0  0  0  0  0  0  0 23
    4.7866   -0.8118    2.6156 C   0  0  0  0  0  0  0  0  0 24
    6.2690   -7.1232    4.3470 C   0  0  0  0  0  0  0  0  0 25
    6.3948   -2.8443    1.6994 C   0  0  0  0  0  0  0  0  0 26
    6.0422   -2.8255    3.0478 C   0  0  0  0  0  0  0  0  0 27
    5.1794   -0.7721    1.2759 C   0  0  0  0  0  0  0  0  0 28
    5.9864   -1.8183    0.8150 C   0  0  0  0  0  0  0  0  0 29
    3.2454    1.0733    2.7271 C   0  0  0  0  0  0  0  0  0 30
    2.0754   -1.2639    4.4520 C   0  0  0  0  0  0  0  0  0 31
    2.4066    2.0123    3.3765 C   0  0  0  0  0  0  0  0  0 32
    2.5162    2.5564    4.6462 C   0  0  0  0  0  0  0  0  0 33
    3.7922    2.5592    5.4567 C   0  0  0  0  0  0  0  0  0 34
    3.5053    2.3889    6.9475 C   0  0  0  0  0  0  0  0  0 35
    1.4475    3.3054    5.2131 C   0  0  0  0  0  0  0  0  0 36
    1.4970    3.7012    6.5361 C   0  0  0  0  0  0  0  0  0 37
    4.7911    2.5518    7.7762 C   0  0  0  0  0  0  0  0  0 38
    0.3935    4.4351    7.2149 C   0  0  0  0  0  0  0  0  0 39
    5.3660   -7.3998    0.2397 H   0  0  0  0  0  0  0  0  0 40
    7.6161   -8.1571    2.1674 H   0  0  0  0  0  0  0  0  0 41
    8.1823   -6.1986    0.4000 H   0  0  0  0  0  0  0  0  0 42
    4.9911   -6.6438    2.6790 H   0  0  0  0  0  0  0  0  0 43
    5.4360   -5.0415    1.1576 H   0  0  0  0  0  0  0  0  0 44
    3.4017    0.1666    5.3774 H   0  0  0  0  0  0  0  0  0 45
    4.2322   -2.4780    5.3326 H   0  0  0  0  0  0  0  0  0 46
    5.3928   -1.1503    5.5504 H   0  0  0  0  0  0  0  0  0 47
    7.3289   -7.3529    4.5404 H   0  0  0  0  0  0  0  0  0 48
    5.9856   -6.2347    4.9348 H   0  0  0  0  0  0  0  0  0 49
    6.3861   -3.6182    3.7080 H   0  0  0  0  0  0  0  0  0 50
    4.8538   -0.0019    0.5771 H   0  0  0  0  0  0  0  0  0 51
    6.5222   -9.2141   -0.4424 H   0  0  0  0  0  0  0  0  0 52
    5.6100   -9.2343    3.0485 H   0  0  0  0  0  0  0  0  0 53
    6.9646   -6.3753   -1.6724 H   0  0  0  0  0  0  0  0  0 54
    3.3350    1.1310    1.6402 H   0  0  0  0  0  0  0  0  0 55
    1.5822    2.3722    2.7551 H   0  0  0  0  0  0  0  0  0 56
    5.7753   -8.6366    5.5081 H   0  0  0  0  0  0  0  0  0 57
    4.2671    3.5447    5.3135 H   0  0  0  0  0  0  0  0  0 58
    4.5278    1.8201    5.1228 H   0  0  0  0  0  0  0  0  0 59
    3.0800    1.3833    7.1390 H   0  0  0  0  0  0  0  0  0 60
    0.5536    3.5178    4.6297 H   0  0  0  0  0  0  0  0  0 61
    6.8574   -2.6914   -0.6299 H   0  0  0  0  0  0  0  0  0 62
    2.3441    3.5212    8.3598 H   0  0  0  0  0  0  0  0  0 63
    4.0318    1.3082    9.0453 H   0  0  0  0  0  0  0  0  0 64
   -1.2849    5.2495    6.9257 H   0  0  0  0  0  0  0  0  0 65
  1 19  1  0  0  0
  1 20  1  0  0  0
 20  2  1  0  0  0
  2 26  1  0  0  0
 16  3  1  0  0  0
  3 52  1  0  0  0
 17  4  1  0  0  0
  4 53  1  0  0  0
 18  5  1  0  0  0
  5 54  1  0  0  0
  6 25  1  0  0  0
  6 57  1  0  0  0
  7 29  1  0  0  0
  7 62  1  0  0  0
  8 31  1  0  0  0
  9 31  2  0  0  0
 10 38  1  0  0  0
 10 64  1  0  0  0
 11 38  2  0  0  0
 12 39  1  0  0  0
 12 65  1  0  0  0
 13 39  2  0  0  0
 14 21  1  0  0  0
 14 24  1  0  0  0
 14 30  2  0  0  0
 15 35  1  0  0  0
 15 37  1  0  0  0
 15 63  1  0  0  0
 16 17  1  0  0  0
 16 18  1  0  0  0
 16 40  1  0  0  0
 17 19  1  0  0  0
 17 41  1  0  0  0
 18 20  1  0  0  0
 18 42  1  0  0  0
 19 25  1  0  0  0
 19 43  1  0  0  0
 20 44  1  0  0  0
 21 22  1  0  0  0
 21 31  1  0  0  0
 21 45  1  0  0  0
 22 23  1  0  0  0
 22 46  1  0  0  0
 22 47  1  0  0  0
 23 24  1  0  0  0
 23 27  2  0  0  0
 24 28  2  0  0  0
 25 48  1  0  0  0
 25 49  1  0  0  0
 26 27  1  0  0  0
 26 29  2  0  0  0
 27 50  1  0  0  0
 28 29  1  0  0  0
 28 51  1  0  0  0
 30 32  1  0  0  0
 30 55  1  0  0  0
 32 33  2  0  0  0
 32 56  1  0  0  0
 33 34  1  0  0  0
 33 36  1  0  0  0
 34 35  1  0  0  0
 34 58  1  0  0  0
 34 59  1  0  0  0
 35 38  1  0  0  0
 35 60  1  0  0  0
 36 37  2  0  0  0
 36 61  1  0  0  0
 37 39  1  0  0  0
M  END
