D1-272
  MatStudio         3D                             0

 50 53  0  0  0  0  0  0  0  0999 V2000
   21.8348  -18.0075   -1.3439 O   0  0  0  0  0  0  0  0  0  1
   17.3376  -14.9704    0.1564 C   0  0  0  0  0  0  0  0  0  2
   13.0579  -10.1401   -2.8211 O   0  0  0  0  0  0  0  0  0  3
   14.9899  -10.5078   -4.6795 O   0  0  0  0  0  0  0  0  0  4
   12.8434  -10.4617    5.6856 O   0  0  0  0  0  0  0  0  0  5
   17.6503  -13.5635    0.4542 O   0  0  0  0  0  0  0  0  0  6
   17.5261  -14.0613    3.1846 O   0  0  0  0  0  0  0  0  0  7
   14.8581  -11.6120    2.8424 C   0  0  0  0  0  0  0  0  0  8
   15.7119  -12.5350    3.4658 C   0  0  0  0  0  0  0  0  0  9
   13.8852  -10.8964    3.5459 C   0  0  0  0  0  0  0  0  0 10
   15.5604  -12.7346    4.8551 C   0  0  0  0  0  0  0  0  0 11
   13.7630  -11.1187    4.9177 C   0  0  0  0  0  0  0  0  0 12
   14.6009  -12.0477    5.5766 C   0  0  0  0  0  0  0  0  0 13
   15.8304  -12.0345    0.6973 C   0  0  0  0  0  0  0  0  0 14
   16.7110  -12.9429    1.2490 C   0  0  0  0  0  0  0  0  0 15
   14.9373  -11.3553    1.4966 O   0  0  0  0  0  0  0  0  0 16
   16.7176  -13.2462    2.6780 C   0  0  0  0  0  0  0  0  0 17
   15.6737  -11.6555   -0.7116 C   0  0  0  0  0  0  0  0  0 18
   16.6889  -11.8500   -1.6707 C   0  0  0  0  0  0  0  0  0 19
   14.4566  -11.0649   -1.1248 C   0  0  0  0  0  0  0  0  0 20
   16.4878  -11.4738   -2.9995 C   0  0  0  0  0  0  0  0  0 21
   14.2559  -10.6991   -2.4500 C   0  0  0  0  0  0  0  0  0 22
   15.2784  -10.9031   -3.3990 C   0  0  0  0  0  0  0  0  0 23
   18.5448  -15.6013   -0.2841 N   0  0  0  0  0  0  0  0  0 24
   19.3913  -16.0644    0.8283 C   0  0  0  0  0  0  0  0  0 25
   18.3216  -16.6614   -1.2791 C   0  0  0  0  0  0  0  0  0 26
   20.7529  -16.5236    0.3077 C   0  0  0  0  0  0  0  0  0 27
   19.6535  -17.1467   -1.8526 C   0  0  0  0  0  0  0  0  0 28
   20.5798  -17.6218   -0.7400 C   0  0  0  0  0  0  0  0  0 29
   22.4114  -18.3176   -0.6217 H   0  0  0  0  0  0  0  0  0 30
   16.5933  -14.9908   -0.6552 H   0  0  0  0  0  0  0  0  0 31
   16.9031  -15.4159    1.0709 H   0  0  0  0  0  0  0  0  0 32
   13.0987   -9.9493   -3.7797 H   0  0  0  0  0  0  0  0  0 33
   15.7493  -10.7017   -5.2614 H   0  0  0  0  0  0  0  0  0 34
   12.3331   -9.8483    5.1220 H   0  0  0  0  0  0  0  0  0 35
   13.2483  -10.1810    3.0246 H   0  0  0  0  0  0  0  0  0 36
   16.2177  -13.4542    5.3437 H   0  0  0  0  0  0  0  0  0 37
   14.4795  -12.2006    6.6494 H   0  0  0  0  0  0  0  0  0 38
   17.6370  -12.2896   -1.3754 H   0  0  0  0  0  0  0  0  0 39
   13.6453  -10.8991   -0.4180 H   0  0  0  0  0  0  0  0  0 40
   17.2807  -11.6181   -3.7360 H   0  0  0  0  0  0  0  0  0 41
   18.8960  -16.9018    1.3681 H   0  0  0  0  0  0  0  0  0 42
   19.5006  -15.2371    1.5419 H   0  0  0  0  0  0  0  0  0 43
   17.6893  -16.2568   -2.0829 H   0  0  0  0  0  0  0  0  0 44
   17.7797  -17.5245   -0.8327 H   0  0  0  0  0  0  0  0  0 45
   21.3659  -16.8884    1.1475 H   0  0  0  0  0  0  0  0  0 46
   21.2813  -15.6729   -0.1540 H   0  0  0  0  0  0  0  0  0 47
   20.1439  -16.3225   -2.3969 H   0  0  0  0  0  0  0  0  0 48
   19.4724  -17.9649   -2.5656 H   0  0  0  0  0  0  0  0  0 49
   20.1207  -18.5052   -0.2540 H   0  0  0  0  0  0  0  0  0 50
  8 10  2  0  0  0
  9 11  2  0  0  0
 10 12  1  0  0  0
 11 13  1  0  0  0
 12 13  2  0  0  0
 14 15  2  0  0  0
 14 16  1  0  0  0
 15 17  1  0  0  0
 16  8  1  0  0  0
 17  9  1  0  0  0
  8  9  1  0  0  0
 18 19  1  0  0  0
 18 20  2  0  0  0
 19 21  2  0  0  0
 20 22  1  0  0  0
 21 23  1  0  0  0
 22 23  2  0  0  0
 14 18  1  0  0  0
  7 17  2  0  0  0
  6 15  1  0  0  0
  5 12  1  0  0  0
  4 23  1  0  0  0
  3 22  1  0  0  0
  2  6  1  0  0  0
 24 25  1  0  0  0
 24 26  1  0  0  0
 25 27  1  0  0  0
 26 28  1  0  0  0
 27 29  1  0  0  0
 28 29  1  0  0  0
  2 24  1  0  0  0
  1 29  1  0  0  0
  1 30  1  0  0  0
  2 31  1  0  0  0
  2 32  1  0  0  0
  3 33  1  0  0  0
  4 34  1  0  0  0
  5 35  1  0  0  0
 10 36  1  0  0  0
 11 37  1  0  0  0
 13 38  1  0  0  0
 19 39  1  0  0  0
 20 40  1  0  0  0
 21 41  1  0  0  0
 25 42  1  0  0  0
 25 43  1  0  0  0
 26 44  1  0  0  0
 26 45  1  0  0  0
 27 46  1  0  0  0
 27 47  1  0  0  0
 28 48  1  0  0  0
 28 49  1  0  0  0
 29 50  1  0  0  0
M  END
