imidazole1-2
  MatStudio         3D                             0

 77 82  0  0  0  0  0  0  0  0999 V2000
   -7.7289    2.7575    0.7698 C   0  0  0  0  0  0  0  0  0  0
   -7.1423    1.5793    1.2578 C   0  0  0  0  0  0  0  0  0  0
   -5.8394    1.2513    0.8828 C   0  0  0  0  0  0  0  0  0  0
   -5.0923    2.0668    0.0122 C   0  0  0  0  0  0  0  0  0  0
   -5.6969    3.2509   -0.4625 C   0  0  0  0  0  0  0  0  0  0
   -6.9944    3.5925   -0.0904 C   0  0  0  0  0  0  0  0  0  0
   -3.7181    1.6921   -0.3263 C   0  0  0  0  0  0  0  0  0  0
   -3.1060    0.4483   -0.5340 C   0  0  0  0  0  0  0  0  0  0
   -3.7446   -0.8546   -0.7525 C   0  0  0  0  0  0  0  0  0  0
   -4.9873   -0.9629   -1.4142 C   0  0  0  0  0  0  0  0  0  0
   -5.5900   -2.1980   -1.6158 C   0  0  0  0  0  0  0  0  0  0
   -4.9610   -3.3742   -1.1688 C   0  0  0  0  0  0  0  0  0  0
   -3.7193   -3.2923   -0.5218 C   0  0  0  0  0  0  0  0  0  0
   -3.1241   -2.0415   -0.3288 C   0  0  0  0  0  0  0  0  0  0
   -1.7339    0.5961   -0.5766 N   0  0  0  0  0  0  0  0  0  0
   -1.4952    1.9026   -0.4404 C   0  0  0  0  0  0  0  0  0  0
   -2.6723    2.5982   -0.3189 N   0  0  0  0  0  0  0  0  0  0
   -0.1723    2.5169   -0.3849 C   0  0  0  0  0  0  0  0  0  0
    0.8737    1.8324    0.2651 C   0  0  0  0  0  0  0  0  0  0
    2.1432    2.3886    0.3626 C   0  0  0  0  0  0  0  0  0  0
    2.4220    3.6340   -0.2349 C   0  0  0  0  0  0  0  0  0  0
    1.3842    4.3227   -0.8873 C   0  0  0  0  0  0  0  0  0  0
    0.1024    3.7790   -0.9462 C   0  0  0  0  0  0  0  0  0  0
    3.7186    4.2033   -0.1500 N   0  0  0  0  0  0  0  0  0  0
    4.8764    3.4211   -0.1240 C   0  0  0  0  0  0  0  0  0  0
    3.8544    5.6343   -0.1248 C   0  0  0  0  0  0  0  0  0  0
    3.1812    6.4018    0.8374 C   0  0  0  0  0  0  0  0  0  0
    3.3194    7.7923    0.8265 C   0  0  0  0  0  0  0  0  0  0
    4.1303    8.4189   -0.1278 C   0  0  0  0  0  0  0  0  0  0
    4.8021    7.6476   -1.0834 C   0  0  0  0  0  0  0  0  0  0
    4.6621    6.2588   -1.0873 C   0  0  0  0  0  0  0  0  0  0
    4.9604    2.1788   -0.7997 C   0  0  0  0  0  0  0  0  0  0
    6.1256    1.4373   -0.7454 C   0  0  0  0  0  0  0  0  0  0
    7.2716    1.8783   -0.0189 C   0  0  0  0  0  0  0  0  0  0
    7.1684    3.1287    0.6495 C   0  0  0  0  0  0  0  0  0  0
    6.0110    3.8772    0.5912 C   0  0  0  0  0  0  0  0  0  0
    8.3904    0.9887    0.0161 C   0  0  0  0  0  0  0  0  0  0
    9.6640    0.9975    0.5850 C   0  0  0  0  0  0  0  0  0  0
   10.3901    2.0882    1.2783 C   0  0  0  0  0  0  0  0  0  0
   10.4025   -0.2163    0.4568 C   0  0  0  0  0  0  0  0  0  0
   11.0579   -1.1922    0.4139 N   0  0  0  0  0  0  0  0  0  0
   10.0477    3.2672    1.3285 O   0  0  0  0  0  0  0  0  0  0
   11.5640    1.7401    1.8895 O   0  0  0  0  0  0  0  0  0  0
   -8.9987    3.1725    1.0831 O   0  0  0  0  0  0  0  0  0  0
   -7.6796    0.9271    1.9437 H   0  0  0  0  0  0  0  0  0  0
   -5.1510    3.9030   -1.1466 H   0  0  0  0  0  0  0  0  0  0
   -7.4570    4.5083   -0.4606 H   0  0  0  0  0  0  0  0  0  0
   -6.5516   -2.2745   -2.1262 H   0  0  0  0  0  0  0  0  0  0
   -5.6341   -4.5436   -1.4268 O   0  0  0  0  0  0  0  0  0  0
   -3.2169   -4.1877   -0.1582 H   0  0  0  0  0  0  0  0  0  0
   -2.1562   -1.9845    0.1709 H   0  0  0  0  0  0  0  0  0  0
   -2.7579    3.5852   -0.0875 H   0  0  0  0  0  0  0  0  0  0
    0.6695    0.8698    0.7355 H   0  0  0  0  0  0  0  0  0  0
    2.9197    1.8691    0.9238 H   0  0  0  0  0  0  0  0  0  0
    1.5829    5.2884   -1.3515 H   0  0  0  0  0  0  0  0  0  0
   -0.6812    4.3275   -1.4723 H   0  0  0  0  0  0  0  0  0  0
    2.5592    5.9106    1.5863 H   0  0  0  0  0  0  0  0  0  0
    2.7951    8.3913    1.5719 H   0  0  0  0  0  0  0  0  0  0
    4.2348    9.5050   -0.1309 H   0  0  0  0  0  0  0  0  0  0
    5.4300    8.1270   -1.8348 H   0  0  0  0  0  0  0  0  0  0
    5.1712    5.6495   -1.8349 H   0  0  0  0  0  0  0  0  0  0
    4.1139    1.8200   -1.3845 H   0  0  0  0  0  0  0  0  0  0
    6.1718    0.4915   -1.2880 H   0  0  0  0  0  0  0  0  0  0
    8.0133    3.4896    1.2289 H   0  0  0  0  0  0  0  0  0  0
    5.9555    4.8242    1.1260 H   0  0  0  0  0  0  0  0  0  0
    8.1845    0.0466   -0.5004 H   0  0  0  0  0  0  0  0  0  0
   11.7452    0.7803    1.7919 H   0  0  0  0  0  0  0  0  0  0
   -9.7525    2.3378    1.9872 C   0  0  0  0  0  0  0  0  0  0
   -5.0112   -5.7716   -1.0061 C   0  0  0  0  0  0  0  0  0  0
   -5.3885    0.3448    1.2893 H   0  0  0  0  0  0  0  0  0  0
   -5.4795   -0.0641   -1.7882 H   0  0  0  0  0  0  0  0  0  0
   -9.2544    2.2673    2.9664 H   0  0  0  0  0  0  0  0  0  0
   -9.8939    1.3301    1.5689 H   0  0  0  0  0  0  0  0  0  0
  -10.7241    2.8296    2.1044 H   0  0  0  0  0  0  0  0  0  0
   -4.9639   -5.8351    0.0917 H   0  0  0  0  0  0  0  0  0  0
   -3.9995   -5.8668   -1.4281 H   0  0  0  0  0  0  0  0  0  0
   -5.6483   -6.5742   -1.3932 H   0  0  0  0  0  0  0  0  0  0
  3  2  1  0  0  0
  4  3  2  0  0  0
  5  4  1  0  0  0
  6  5  2  0  0  0
  1  2  2  0  0  0
  1  6  1  0  0  0
  8  7  2  0  0  0
  9  8  1  0  0  0
 10  9  2  0  0  0
  4  7  1  0  0  0
 12 11  2  0  0  0
 13 12  1  0  0  0
 14 13  2  0  0  0
 10 11  1  0  0  0
  9 14  1  0  0  0
 16 15  2  0  0  0
 17 16  1  0  0  0
  8 15  1  0  0  0
  7 17  1  0  0  0
 16 18  1  0  0  0
 20 19  1  0  0  0
 21 20  2  0  0  0
 22 21  1  0  0  0
 23 22  2  0  0  0
 18 19  2  0  0  0
 18 23  1  0  0  0
 21 24  1  0  0  0
 24 25  1  0  0  0
 24 26  1  0  0  0
 28 27  2  0  0  0
 29 28  1  0  0  0
 30 29  2  0  0  0
 31 30  1  0  0  0
 26 27  1  0  0  0
 26 31  2  0  0  0
 33 32  1  0  0  0
 34 33  2  0  0  0
 35 34  1  0  0  0
 36 35  2  0  0  0
 25 32  2  0  0  0
 25 36  1  0  0  0
 34 37  1  0  0  0
 37 38  2  0  0  0
 38 39  1  0  0  0
 38 40  1  0  0  0
 40 41  3  0  0  0
 39 42  2  0  0  0
 39 43  1  0  0  0
  1 44  1  0  0  0
  2 45  1  0  0  0
  5 46  1  0  0  0
  6 47  1  0  0  0
 11 48  1  0  0  0
 12 49  1  0  0  0
 13 50  1  0  0  0
 14 51  1  0  0  0
 17 52  1  0  0  0
 19 53  1  0  0  0
 20 54  1  0  0  0
 22 55  1  0  0  0
 23 56  1  0  0  0
 27 57  1  0  0  0
 28 58  1  0  0  0
 29 59  1  0  0  0
 30 60  1  0  0  0
 31 61  1  0  0  0
 32 62  1  0  0  0
 33 63  1  0  0  0
 35 64  1  0  0  0
 36 65  1  0  0  0
 37 66  1  0  0  0
 43 67  1  0  0  0
 44 68  1  0  0  0
 49 69  1  0  0  0
  3 70  1  0  0  0
 10 71  1  0  0  0
 68 72  1  0  0  0
 68 73  1  0  0  0
 68 74  1  0  0  0
 69 75  1  0  0  0
 69 76  1  0  0  0
 69 77  1  0  0  0
M  END
