imidazole3
  MatStudio         3D                             0

 73 79  0  0  0  0  0  0  0  0999 V2000
   -7.3951    2.3115    0.3044 C   0  0  0  0  0  0  0  0  0  0
   -6.8422    1.0296    0.1862 C   0  0  0  0  0  0  0  0  0  0
   -5.4429    0.8088    0.1583 C   0  0  0  0  0  0  0  0  0  0
   -4.5945    1.9571    0.2701 C   0  0  0  0  0  0  0  0  0  0
   -5.1505    3.2447    0.3976 C   0  0  0  0  0  0  0  0  0  0
   -6.5193    3.4215    0.4080 C   0  0  0  0  0  0  0  0  0  0
   -3.1739    1.7628    0.2559 C   0  0  0  0  0  0  0  0  0  0
   -2.6313    0.4811    0.1097 C   0  0  0  0  0  0  0  0  0  0
   -3.4207   -0.6952   -0.0241 C   0  0  0  0  0  0  0  0  0  0
   -4.8481   -0.5334    0.0029 C   0  0  0  0  0  0  0  0  0  0
   -5.6278   -1.7052   -0.1215 C   0  0  0  0  0  0  0  0  0  0
   -5.0642   -2.9805   -0.2759 C   0  0  0  0  0  0  0  0  0  0
   -3.6521   -3.0945   -0.3024 C   0  0  0  0  0  0  0  0  0  0
   -2.8520   -1.9764   -0.1782 C   0  0  0  0  0  0  0  0  0  0
   -1.2715    0.6607    0.1430 N   0  0  0  0  0  0  0  0  0  0
   -1.0348    2.0115    0.3105 C   0  0  0  0  0  0  0  0  0  0
   -2.1825    2.6996    0.3767 N   0  0  0  0  0  0  0  0  0  0
    0.2862    2.5932    0.4341 C   0  0  0  0  0  0  0  0  0  0
    1.4632    1.8150    0.3995 C   0  0  0  0  0  0  0  0  0  0
    2.7035    2.4135    0.5551 C   0  0  0  0  0  0  0  0  0  0
    2.8277    3.8126    0.7594 C   0  0  0  0  0  0  0  0  0  0
    1.6391    4.5871    0.7747 C   0  0  0  0  0  0  0  0  0  0
    0.4020    3.9921    0.6145 C   0  0  0  0  0  0  0  0  0  0
    4.6023    5.6034    1.2345 C   0  0  0  0  0  0  0  0  0  0
    6.0741    5.8152    1.3511 C   0  0  0  0  0  0  0  0  0  0
    3.7614    6.7169    1.4926 C   0  0  0  0  0  0  0  0  0  0
    3.1354    7.6802    1.7439 N   0  0  0  0  0  0  0  0  0  0
    6.9024    4.9281    1.1738 O   0  0  0  0  0  0  0  0  0  0
    6.4970    7.0656    1.6717 O   0  0  0  0  0  0  0  0  0  0
   -8.8521    2.5763    0.3323 C   0  0  0  0  0  0  0  0  0  0
   -7.5244    0.1840    0.0917 H   0  0  0  0  0  0  0  0  0  0
   -4.4775    4.0978    0.4935 H   0  0  0  0  0  0  0  0  0  0
   -6.9364    4.4220    0.5292 H   0  0  0  0  0  0  0  0  0  0
   -6.7141   -1.6268   -0.0789 H   0  0  0  0  0  0  0  0  0  0
   -5.8854   -4.1975   -0.4427 C   0  0  0  0  0  0  0  0  0  0
   -3.1890   -4.0692   -0.4554 H   0  0  0  0  0  0  0  0  0  0
   -1.7666   -2.0860   -0.2136 H   0  0  0  0  0  0  0  0  0  0
    1.4167    0.7347    0.2569 H   0  0  0  0  0  0  0  0  0  0
    3.6041    1.7986    0.5298 H   0  0  0  0  0  0  0  0  0  0
    1.6836    5.6663    0.9074 H   0  0  0  0  0  0  0  0  0  0
   -0.5033    4.5970    0.6299 H   0  0  0  0  0  0  0  0  0  0
    5.7382    7.6773    1.7855 H   0  0  0  0  0  0  0  0  0  0
    4.1528    4.3372    0.9347 C   0  0  0  0  0  0  0  0  0  0
   -0.5676   -0.0683    0.0706 H   0  0  0  0  0  0  0  0  0  0
    4.9631    3.6109    0.8258 H   0  0  0  0  0  0  0  0  0  0
   -9.7514    1.8100    1.0925 C   0  0  0  0  0  0  0  0  0  0
  -11.1024    2.1652    1.2070 C   0  0  0  0  0  0  0  0  0  0
  -11.5819    3.3044    0.5417 C   0  0  0  0  0  0  0  0  0  0
  -10.7080    4.0566   -0.2619 C   0  0  0  0  0  0  0  0  0  0
   -9.3683    3.6998   -0.3523 C   0  0  0  0  0  0  0  0  0  0
   -7.1323   -4.1718   -1.1047 C   0  0  0  0  0  0  0  0  0  0
   -7.8548   -5.3386   -1.3306 C   0  0  0  0  0  0  0  0  0  0
   -7.3568   -6.5781   -0.8904 C   0  0  0  0  0  0  0  0  0  0
   -6.1323   -6.6262   -0.2074 C   0  0  0  0  0  0  0  0  0  0
   -5.4177   -5.4457    0.0085 C   0  0  0  0  0  0  0  0  0  0
  -12.8713    3.7702    0.6110 O   0  0  0  0  0  0  0  0  0  0
   -8.1261   -7.6752   -1.1811 O   0  0  0  0  0  0  0  0  0  0
  -13.7659    3.1083    1.5253 C   0  0  0  0  0  0  0  0  0  0
   -7.5961   -8.9650   -0.8139 C   0  0  0  0  0  0  0  0  0  0
   -9.3892    0.9446    1.6510 H   0  0  0  0  0  0  0  0  0  0
  -11.7613    1.5651    1.8335 H   0  0  0  0  0  0  0  0  0  0
  -11.0936    4.9258   -0.7969 H   0  0  0  0  0  0  0  0  0  0
   -8.7044    4.3008   -0.9767 H   0  0  0  0  0  0  0  0  0  0
   -7.5216   -3.2278   -1.4898 H   0  0  0  0  0  0  0  0  0  0
   -8.8061   -5.3116   -1.8637 H   0  0  0  0  0  0  0  0  0  0
   -5.7283   -7.5688    0.1580 H   0  0  0  0  0  0  0  0  0  0
   -4.4723   -5.5062    0.5500 H   0  0  0  0  0  0  0  0  0  0
  -13.9387    2.0645    1.2268 H   0  0  0  0  0  0  0  0  0  0
  -14.7065    3.6670    1.4739 H   0  0  0  0  0  0  0  0  0  0
  -13.3701    3.1408    2.5521 H   0  0  0  0  0  0  0  0  0  0
   -7.4763   -9.0470    0.2768 H   0  0  0  0  0  0  0  0  0  0
   -6.6309   -9.1467   -1.3099 H   0  0  0  0  0  0  0  0  0  0
   -8.3344   -9.6972   -1.1599 H   0  0  0  0  0  0  0  0  0  0
  3  2  1  0  0  0
  4  3  2  0  0  0
  5  4  1  0  0  0
  6  5  2  0  0  0
  1  2  2  0  0  0
  1  6  1  0  0  0
  8  7  2  0  0  0
  9  8  1  0  0  0
 10  9  2  0  0  0
  4  7  1  0  0  0
 12 11  2  0  0  0
 13 12  1  0  0  0
 14 13  2  0  0  0
 10 11  1  0  0  0
  9 14  1  0  0  0
 16 15  1  0  0  0
 17 16  2  0  0  0
  8 15  1  0  0  0
  7 17  1  0  0  0
 16 18  1  0  0  0
 20 19  1  0  0  0
 21 20  2  0  0  0
 22 21  1  0  0  0
 23 22  2  0  0  0
 18 19  2  0  0  0
 18 23  1  0  0  0
 24 25  1  0  0  0
 24 26  1  0  0  0
 26 27  3  0  0  0
 25 28  2  0  0  0
 25 29  1  0  0  0
  1 30  1  0  0  0
  2 31  1  0  0  0
  5 32  1  0  0  0
  6 33  1  0  0  0
 11 34  1  0  0  0
 12 35  1  0  0  0
 13 36  1  0  0  0
 14 37  1  0  0  0
 19 38  1  0  0  0
 20 39  1  0  0  0
 22 40  1  0  0  0
 23 41  1  0  0  0
 29 42  1  0  0  0
 21 43  1  0  0  0
 24 43  2  0  0  0
 15 44  1  0  0  0
 43 45  1  0  0  0
 47 46  2  0  0  0
 48 47  1  0  0  0
 49 48  2  0  0  0
 50 49  1  0  0  0
 30 46  1  0  0  0
 30 50  2  0  0  0
 52 51  1  0  0  0
 53 52  2  0  0  0
 54 53  1  0  0  0
 55 54  2  0  0  0
 35 51  2  0  0  0
 35 55  1  0  0  0
 48 56  1  0  0  0
 53 57  1  0  0  0
 56 58  1  0  0  0
 57 59  1  0  0  0
 46 60  1  0  0  0
 47 61  1  0  0  0
 49 62  1  0  0  0
 50 63  1  0  0  0
 51 64  1  0  0  0
 52 65  1  0  0  0
 54 66  1  0  0  0
 55 67  1  0  0  0
 58 68  1  0  0  0
 58 69  1  0  0  0
 58 70  1  0  0  0
 59 71  1  0  0  0
 59 72  1  0  0  0
 59 73  1  0  0  0
  3 10  1  0  0  0
M  END
