imidazole1-1
  MatStudio         3D                             0

 67 73  0  0  0  0  0  0  0  0999 V2000
   -7.6304    1.9893   -0.8434 C   0  0  0  0  0  0  0  0  0  0
   -7.0250    0.7976   -0.4638 C   0  0  0  0  0  0  0  0  0  0
   -5.6302    0.7034   -0.2448 C   0  0  0  0  0  0  0  0  0  0
   -4.8564    1.8996   -0.4311 C   0  0  0  0  0  0  0  0  0  0
   -5.4862    3.1037   -0.8237 C   0  0  0  0  0  0  0  0  0  0
   -6.8573    3.1519   -1.0272 C   0  0  0  0  0  0  0  0  0  0
   -3.4519    1.7895   -0.1946 C   0  0  0  0  0  0  0  0  0  0
   -2.8249    0.6068    0.2067 C   0  0  0  0  0  0  0  0  0  0
   -3.5732   -0.6055    0.3842 C   0  0  0  0  0  0  0  0  0  0
   -4.9864   -0.5521    0.1584 C   0  0  0  0  0  0  0  0  0  0
   -5.7162   -1.7530    0.3401 C   0  0  0  0  0  0  0  0  0  0
   -5.0919   -2.9359    0.7171 C   0  0  0  0  0  0  0  0  0  0
   -3.7002   -2.9716    0.9302 C   0  0  0  0  0  0  0  0  0  0
   -2.9522   -1.8150    0.7670 C   0  0  0  0  0  0  0  0  0  0
   -1.4754    0.8037    0.3783 N   0  0  0  0  0  0  0  0  0  0
   -1.2642    2.0898    0.0854 C   0  0  0  0  0  0  0  0  0  0
   -2.4380    2.7206   -0.2732 N   0  0  0  0  0  0  0  0  0  0
    0.0386    2.7415    0.1287 C   0  0  0  0  0  0  0  0  0  0
    1.0999    2.0929    0.7919 C   0  0  0  0  0  0  0  0  0  0
    2.3677    2.6585    0.8349 C   0  0  0  0  0  0  0  0  0  0
    2.6200    3.8836    0.1918 C   0  0  0  0  0  0  0  0  0  0
    1.5656    4.5492   -0.4539 C   0  0  0  0  0  0  0  0  0  0
    0.2898    3.9873   -0.4784 C   0  0  0  0  0  0  0  0  0  0
    3.9351    4.4378    0.1942 N   0  0  0  0  0  0  0  0  0  0
    5.0446    3.6392   -0.0863 C   0  0  0  0  0  0  0  0  0  0
    4.0804    5.8401    0.4589 C   0  0  0  0  0  0  0  0  0  0
    3.4283    6.4160    1.5607 C   0  0  0  0  0  0  0  0  0  0
    3.5641    7.7842    1.8089 C   0  0  0  0  0  0  0  0  0  0
    4.3524    8.5822    0.9721 C   0  0  0  0  0  0  0  0  0  0
    4.9978    8.0050   -0.1279 C   0  0  0  0  0  0  0  0  0  0
    4.8565    6.6409   -0.3925 C   0  0  0  0  0  0  0  0  0  0
    4.9094    2.4497   -0.8466 C   0  0  0  0  0  0  0  0  0  0
    6.0089    1.6578   -1.1079 C   0  0  0  0  0  0  0  0  0  0
    7.3126    1.9807   -0.6297 C   0  0  0  0  0  0  0  0  0  0
    7.4356    3.1827    0.1214 C   0  0  0  0  0  0  0  0  0  0
    6.3397    3.9860    0.3812 C   0  0  0  0  0  0  0  0  0  0
    8.3376    1.0325   -0.9483 C   0  0  0  0  0  0  0  0  0  0
    9.6965    0.8733   -0.6965 C   0  0  0  0  0  0  0  0  0  0
   10.6248    1.7647    0.0211 C   0  0  0  0  0  0  0  0  0  0
   10.2753   -0.3262   -1.2143 C   0  0  0  0  0  0  0  0  0  0
   10.7393   -1.3113   -1.6533 N   0  0  0  0  0  0  0  0  0  0
   10.3767    2.8798    0.4794 O   0  0  0  0  0  0  0  0  0  0
   11.8673    1.2078    0.1258 O   0  0  0  0  0  0  0  0  0  0
   -8.7095    2.0183   -1.0021 H   0  0  0  0  0  0  0  0  0  0
   -7.6541   -0.0825   -0.3330 H   0  0  0  0  0  0  0  0  0  0
   -4.8860    4.0038   -0.9702 H   0  0  0  0  0  0  0  0  0  0
   -7.3324    4.0857   -1.3314 H   0  0  0  0  0  0  0  0  0  0
   -6.7942   -1.7642    0.1822 H   0  0  0  0  0  0  0  0  0  0
   -5.6865   -3.8417    0.8482 H   0  0  0  0  0  0  0  0  0  0
   -3.2154   -3.9030    1.2269 H   0  0  0  0  0  0  0  0  0  0
   -1.8737   -1.8172    0.9308 H   0  0  0  0  0  0  0  0  0  0
   -2.5445    3.7084   -0.4845 H   0  0  0  0  0  0  0  0  0  0
    0.9106    1.1436    1.2923 H   0  0  0  0  0  0  0  0  0  0
    3.1706    2.1569    1.3755 H   0  0  0  0  0  0  0  0  0  0
    1.7492    5.5008   -0.9534 H   0  0  0  0  0  0  0  0  0  0
   -0.5022    4.5149   -1.0124 H   0  0  0  0  0  0  0  0  0  0
    2.8231    5.7909    2.2195 H   0  0  0  0  0  0  0  0  0  0
    3.0607    8.2273    2.6703 H   0  0  0  0  0  0  0  0  0  0
    4.4590    9.6490    1.1740 H   0  0  0  0  0  0  0  0  0  0
    5.6043    8.6206   -0.7947 H   0  0  0  0  0  0  0  0  0  0
    5.3413    6.1925   -1.2609 H   0  0  0  0  0  0  0  0  0  0
    3.9367    2.1632   -1.2433 H   0  0  0  0  0  0  0  0  0  0
    5.8727    0.7536   -1.7047 H   0  0  0  0  0  0  0  0  0  0
    8.4102    3.4629    0.5122 H   0  0  0  0  0  0  0  0  0  0
    6.4750    4.8920    0.9720 H   0  0  0  0  0  0  0  0  0  0
    7.9385    0.1997   -1.5346 H   0  0  0  0  0  0  0  0  0  0
   12.4223    1.8601    0.6048 H   0  0  0  0  0  0  0  0  0  0
  3  2  1  0  0  0
  4  3  2  0  0  0
  5  4  1  0  0  0
  6  5  2  0  0  0
  1  2  2  0  0  0
  1  6  1  0  0  0
  8  7  2  0  0  0
  9  8  1  0  0  0
 10  9  2  0  0  0
  4  7  1  0  0  0
  3 10  1  0  0  0
 12 11  2  0  0  0
 13 12  1  0  0  0
 14 13  2  0  0  0
 10 11  1  0  0  0
  9 14  1  0  0  0
 16 15  2  0  0  0
 17 16  1  0  0  0
  8 15  1  0  0  0
  7 17  1  0  0  0
 16 18  1  0  0  0
 20 19  1  0  0  0
 21 20  2  0  0  0
 22 21  1  0  0  0
 23 22  2  0  0  0
 18 19  2  0  0  0
 18 23  1  0  0  0
 21 24  1  0  0  0
 24 25  1  0  0  0
 24 26  1  0  0  0
 28 27  2  0  0  0
 29 28  1  0  0  0
 30 29  2  0  0  0
 31 30  1  0  0  0
 26 27  1  0  0  0
 26 31  2  0  0  0
 33 32  1  0  0  0
 34 33  2  0  0  0
 35 34  1  0  0  0
 36 35  2  0  0  0
 25 32  2  0  0  0
 25 36  1  0  0  0
 34 37  1  0  0  0
 37 38  2  0  0  0
 38 39  1  0  0  0
 38 40  1  0  0  0
 40 41  3  0  0  0
 39 42  2  0  0  0
 39 43  1  0  0  0
  1 44  1  0  0  0
  2 45  1  0  0  0
  5 46  1  0  0  0
  6 47  1  0  0  0
 11 48  1  0  0  0
 12 49  1  0  0  0
 13 50  1  0  0  0
 14 51  1  0  0  0
 17 52  1  0  0  0
 19 53  1  0  0  0
 20 54  1  0  0  0
 22 55  1  0  0  0
 23 56  1  0  0  0
 27 57  1  0  0  0
 28 58  1  0  0  0
 29 59  1  0  0  0
 30 60  1  0  0  0
 31 61  1  0  0  0
 32 62  1  0  0  0
 33 63  1  0  0  0
 35 64  1  0  0  0
 36 65  1  0  0  0
 37 66  1  0  0  0
 43 67  1  0  0  0
M  END
