imidazole1-3
  MatStudio         3D                             0

 71 77  0  0  0  0  0  0  0  0999 V2000
   -7.8350    1.6336   -0.5231 C   0  0  0  0  0  0  0  0  0  0
   -7.1294    0.4514   -0.3321 C   0  0  0  0  0  0  0  0  0  0
   -5.7248    0.4333   -0.1720 C   0  0  0  0  0  0  0  0  0  0
   -5.0351    1.6940   -0.2084 C   0  0  0  0  0  0  0  0  0  0
   -5.7715    2.8859   -0.4099 C   0  0  0  0  0  0  0  0  0  0
   -7.1507    2.8602   -0.5661 C   0  0  0  0  0  0  0  0  0  0
   -3.6111    1.6457   -0.0443 C   0  0  0  0  0  0  0  0  0  0
   -2.9008    0.4458    0.1039 C   0  0  0  0  0  0  0  0  0  0
   -3.5707   -0.8231    0.1366 C   0  0  0  0  0  0  0  0  0  0
   -4.9931   -0.8270    0.0068 C   0  0  0  0  0  0  0  0  0  0
   -5.6475   -2.0808    0.0557 C   0  0  0  0  0  0  0  0  0  0
   -4.9380   -3.2665    0.2132 C   0  0  0  0  0  0  0  0  0  0
   -3.5355   -3.2457    0.3336 C   0  0  0  0  0  0  0  0  0  0
   -2.8615   -2.0325    0.2969 C   0  0  0  0  0  0  0  0  0  0
   -1.5565    0.6801    0.2247 N   0  0  0  0  0  0  0  0  0  0
   -1.4176    2.0073    0.1639 C   0  0  0  0  0  0  0  0  0  0
   -2.6461    2.6465   -0.0013 N   0  0  0  0  0  0  0  0  0  0
   -0.1410    2.6731    0.2493 C   0  0  0  0  0  0  0  0  0  0
    7.3546    1.5552    0.0187 C   0  0  0  0  0  0  0  0  0  0
    8.7291    1.7950   -0.0214 C   0  0  0  0  0  0  0  0  0  0
    9.4267    3.0943   -0.0658 C   0  0  0  0  0  0  0  0  0  0
    9.5585    0.6391   -0.0342 C   0  0  0  0  0  0  0  0  0  0
   10.2923   -0.2793   -0.0417 N   0  0  0  0  0  0  0  0  0  0
    8.8767    4.1931   -0.1027 O   0  0  0  0  0  0  0  0  0  0
   10.7908    3.0614   -0.0740 O   0  0  0  0  0  0  0  0  0  0
   -8.9189    1.6001   -0.6449 H   0  0  0  0  0  0  0  0  0  0
   -7.6879   -0.4839   -0.3106 H   0  0  0  0  0  0  0  0  0  0
   -5.2509    3.8403   -0.4535 H   0  0  0  0  0  0  0  0  0  0
   -7.6945    3.7927   -0.7255 H   0  0  0  0  0  0  0  0  0  0
   -6.7320   -2.1368   -0.0303 H   0  0  0  0  0  0  0  0  0  0
   -5.4764   -4.2156    0.2477 H   0  0  0  0  0  0  0  0  0  0
   -2.9813   -4.1772    0.4598 H   0  0  0  0  0  0  0  0  0  0
   -1.7756   -1.9910    0.3926 H   0  0  0  0  0  0  0  0  0  0
   -2.8228    4.0663   -0.1496 C   0  0  0  0  0  0  0  0  0  0
    7.1180    0.4871    0.0140 H   0  0  0  0  0  0  0  0  0  0
   11.1292    2.1418   -0.0380 H   0  0  0  0  0  0  0  0  0  0
   -2.5788    4.6662   -1.3863 C   0  0  0  0  0  0  0  0  0  0
   -2.6387    6.0596   -1.5004 C   0  0  0  0  0  0  0  0  0  0
   -2.9428    6.8684   -0.3934 C   0  0  0  0  0  0  0  0  0  0
   -3.2225    6.2329    0.8324 C   0  0  0  0  0  0  0  0  0  0
   -3.1610    4.8455    0.9640 C   0  0  0  0  0  0  0  0  0  0
   -2.9461    8.3818   -0.4601 C   0  0  0  0  0  0  0  0  0  0
   -2.7998    9.0084   -1.8475 C   0  0  0  0  0  0  0  0  0  0
   -2.8328   10.5404   -1.8086 C   0  0  0  0  0  0  0  0  0  0
   -2.6472   11.1723   -3.1903 C   0  0  0  0  0  0  0  0  0  0
    1.2921    1.6904    0.0868 S   0  0  0  0  0  0  0  0  0  0
    2.3363    3.0763    0.2677 C   0  0  0  0  0  0  0  0  0  0
    1.5834    4.2371    0.4531 C   0  0  0  0  0  0  0  0  0  0
    0.1987    4.0132    0.4433 C   0  0  0  0  0  0  0  0  0  0
    3.7674    3.0083    0.2139 C   0  0  0  0  0  0  0  0  0  0
    4.6570    1.5316    0.1147 S   0  0  0  0  0  0  0  0  0  0
    6.2064    2.3766    0.0790 C   0  0  0  0  0  0  0  0  0  0
    5.9856    3.7651    0.1475 C   0  0  0  0  0  0  0  0  0  0
    4.6416    4.1126    0.2252 C   0  0  0  0  0  0  0  0  0  0
   -2.3190    4.0514   -2.2495 H   0  0  0  0  0  0  0  0  0  0
   -2.4281    6.5156   -2.4682 H   0  0  0  0  0  0  0  0  0  0
   -3.4745    6.8374    1.7070 H   0  0  0  0  0  0  0  0  0  0
   -3.3508    4.3631    1.9241 H   0  0  0  0  0  0  0  0  0  0
   -2.1256    8.7458    0.1860 H   0  0  0  0  0  0  0  0  0  0
   -3.8726    8.7515    0.0134 H   0  0  0  0  0  0  0  0  0  0
   -3.6068    8.6462   -2.5092 H   0  0  0  0  0  0  0  0  0  0
   -1.8499    8.6835   -2.3076 H   0  0  0  0  0  0  0  0  0  0
   -2.0455   10.9008   -1.1234 H   0  0  0  0  0  0  0  0  0  0
   -3.7926   10.8720   -1.3744 H   0  0  0  0  0  0  0  0  0  0
   -2.6798   12.2715   -3.1403 H   0  0  0  0  0  0  0  0  0  0
   -3.4369   10.8443   -3.8852 H   0  0  0  0  0  0  0  0  0  0
   -1.6793   10.8814   -3.6299 H   0  0  0  0  0  0  0  0  0  0
    2.0311    5.2181    0.6024 H   0  0  0  0  0  0  0  0  0  0
   -0.5284    4.8080    0.5818 H   0  0  0  0  0  0  0  0  0  0
    6.8111    4.4711    0.1382 H   0  0  0  0  0  0  0  0  0  0
    4.2891    5.1408    0.2748 H   0  0  0  0  0  0  0  0  0  0
  3  2  1  0  0  0
  4  3  2  0  0  0
  5  4  1  0  0  0
  6  5  2  0  0  0
  1  2  2  0  0  0
  1  6  1  0  0  0
  8  7  2  0  0  0
  9  8  1  0  0  0
 10  9  2  0  0  0
  4  7  1  0  0  0
  3 10  1  0  0  0
 12 11  2  0  0  0
 13 12  1  0  0  0
 14 13  2  0  0  0
 10 11  1  0  0  0
  9 14  1  0  0  0
 16 15  2  0  0  0
 17 16  1  0  0  0
  8 15  1  0  0  0
  7 17  1  0  0  0
 16 18  1  0  0  0
 19 20  2  0  0  0
 20 21  1  0  0  0
 20 22  1  0  0  0
 22 23  3  0  0  0
 21 24  2  0  0  0
 21 25  1  0  0  0
  1 26  1  0  0  0
  2 27  1  0  0  0
  5 28  1  0  0  0
  6 29  1  0  0  0
 11 30  1  0  0  0
 12 31  1  0  0  0
 13 32  1  0  0  0
 14 33  1  0  0  0
 17 34  1  0  0  0
 19 35  1  0  0  0
 25 36  1  0  0  0
 38 37  1  0  0  0
 39 38  2  0  0  0
 40 39  1  0  0  0
 41 40  2  0  0  0
 34 37  2  0  0  0
 34 41  1  0  0  0
 39 42  1  0  0  0
 42 43  1  0  0  0
 43 44  1  0  0  0
 44 45  1  0  0  0
 47 46  1  0  0  0
 48 47  2  0  0  0
 49 48  1  0  0  0
 18 46  1  0  0  0
 18 49  2  0  0  0
 47 50  1  0  0  0
 52 51  1  0  0  0
 53 52  2  0  0  0
 54 53  1  0  0  0
 50 51  1  0  0  0
 50 54  2  0  0  0
 19 52  1  0  0  0
 37 55  1  0  0  0
 38 56  1  0  0  0
 40 57  1  0  0  0
 41 58  1  0  0  0
 42 59  1  0  0  0
 42 60  1  0  0  0
 43 61  1  0  0  0
 43 62  1  0  0  0
 44 63  1  0  0  0
 44 64  1  0  0  0
 45 65  1  0  0  0
 45 66  1  0  0  0
 45 67  1  0  0  0
 48 68  1  0  0  0
 49 69  1  0  0  0
 53 70  1  0  0  0
 54 71  1  0  0  0
M  END
