imidazole1
  MatStudio         3D                             0

 75 80  0  0  0  0  0  0  0  0999 V2000
   -7.5159    2.9142    0.6730 C   0  0  0  0  0  0  0  0  0  0
   -7.0668    1.7100    1.2542 C   0  0  0  0  0  0  0  0  0  0
   -5.7344    1.3165    1.1684 C   0  0  0  0  0  0  0  0  0  0
   -4.7857    2.1139    0.4978 C   0  0  0  0  0  0  0  0  0  0
   -5.2165    3.3395   -0.0435 C   0  0  0  0  0  0  0  0  0  0
   -6.5539    3.7258    0.0351 C   0  0  0  0  0  0  0  0  0  0
   -3.3809    1.7038    0.3843 C   0  0  0  0  0  0  0  0  0  0
   -2.8496    0.4071    0.2122 C   0  0  0  0  0  0  0  0  0  0
   -3.4766   -0.8926   -0.0139 C   0  0  0  0  0  0  0  0  0  0
   -4.6356   -0.9948   -0.8111 C   0  0  0  0  0  0  0  0  0  0
   -5.2665   -2.2193   -0.9982 C   0  0  0  0  0  0  0  0  0  0
   -4.7797   -3.4014   -0.3992 C   0  0  0  0  0  0  0  0  0  0
   -3.5971   -3.3006    0.3629 C   0  0  0  0  0  0  0  0  0  0
   -2.9573   -2.0759    0.5495 C   0  0  0  0  0  0  0  0  0  0
   -1.4868    0.5831    0.2560 N   0  0  0  0  0  0  0  0  0  0
   -1.2195    1.9227    0.4115 C   0  0  0  0  0  0  0  0  0  0
   -2.3641    2.6141    0.4919 N   0  0  0  0  0  0  0  0  0  0
    0.1064    2.4981    0.5021 C   0  0  0  0  0  0  0  0  0  0
    1.2788    1.7110    0.5066 C   0  0  0  0  0  0  0  0  0  0
    2.5241    2.3076    0.6239 C   0  0  0  0  0  0  0  0  0  0
    2.6649    3.7154    0.7361 C   0  0  0  0  0  0  0  0  0  0
    1.4810    4.4985    0.7201 C   0  0  0  0  0  0  0  0  0  0
    0.2379    3.9048    0.6019 C   0  0  0  0  0  0  0  0  0  0
    4.4797    5.5132    1.0197 C   0  0  0  0  0  0  0  0  0  0
    5.9547    5.6921    1.1612 C   0  0  0  0  0  0  0  0  0  0
    3.6878    6.6884    1.0436 C   0  0  0  0  0  0  0  0  0  0
    3.1133    7.7132    1.0654 N   0  0  0  0  0  0  0  0  0  0
    6.7543    4.7623    1.1476 O   0  0  0  0  0  0  0  0  0  0
    6.4152    6.9621    1.3136 O   0  0  0  0  0  0  0  0  0  0
   -8.9434    3.2965    0.7154 C   0  0  0  0  0  0  0  0  0  0
   -7.7689    1.0814    1.8041 H   0  0  0  0  0  0  0  0  0  0
   -4.4949    3.9749   -0.5586 H   0  0  0  0  0  0  0  0  0  0
   -6.8626    4.6603   -0.4357 H   0  0  0  0  0  0  0  0  0  0
   -6.1446   -2.2624   -1.6439 H   0  0  0  0  0  0  0  0  0  0
   -5.5062   -4.6783   -0.5485 C   0  0  0  0  0  0  0  0  0  0
   -3.1900   -4.1864    0.8526 H   0  0  0  0  0  0  0  0  0  0
   -2.0704   -2.0330    1.1850 H   0  0  0  0  0  0  0  0  0  0
    1.2225    0.6240    0.4330 H   0  0  0  0  0  0  0  0  0  0
    3.4193    1.6841    0.6360 H   0  0  0  0  0  0  0  0  0  0
    1.5339    5.5830    0.8015 H   0  0  0  0  0  0  0  0  0  0
   -0.6623    4.5178    0.5950 H   0  0  0  0  0  0  0  0  0  0
    5.6758    7.6078    1.3098 H   0  0  0  0  0  0  0  0  0  0
    3.9962    4.2309    0.8781 C   0  0  0  0  0  0  0  0  0  0
   -0.8049   -0.1548    0.0992 H   0  0  0  0  0  0  0  0  0  0
   -5.4208    0.3855    1.6417 H   0  0  0  0  0  0  0  0  0  0
   -5.0350   -0.1061   -1.2995 H   0  0  0  0  0  0  0  0  0  0
    4.7893    3.4771    0.8792 H   0  0  0  0  0  0  0  0  0  0
   -9.9550    2.3183    0.7427 C   0  0  0  0  0  0  0  0  0  0
  -11.3110    2.6542    0.7677 C   0  0  0  0  0  0  0  0  0  0
  -11.6893    4.0041    0.7673 C   0  0  0  0  0  0  0  0  0  0
  -10.6963    5.0004    0.7419 C   0  0  0  0  0  0  0  0  0  0
   -9.3518    4.6479    0.7172 C   0  0  0  0  0  0  0  0  0  0
   -6.9103   -4.6931   -0.7122 C   0  0  0  0  0  0  0  0  0  0
   -7.6150   -5.8830   -0.8449 C   0  0  0  0  0  0  0  0  0  0
   -6.9336   -7.1133   -0.8217 C   0  0  0  0  0  0  0  0  0  0
   -5.5398   -7.1275   -0.6598 C   0  0  0  0  0  0  0  0  0  0
   -4.8463   -5.9208   -0.5251 C   0  0  0  0  0  0  0  0  0  0
  -12.9873    4.4488    0.7877 O   0  0  0  0  0  0  0  0  0  0
   -7.7151   -8.2310   -0.9594 O   0  0  0  0  0  0  0  0  0  0
  -14.0216    3.4473    0.8503 C   0  0  0  0  0  0  0  0  0  0
   -7.0523   -9.5105   -0.9306 C   0  0  0  0  0  0  0  0  0  0
   -9.6842    1.2616    0.7169 H   0  0  0  0  0  0  0  0  0  0
  -12.0570    1.8605    0.7724 H   0  0  0  0  0  0  0  0  0  0
  -10.9990    6.0485    0.7528 H   0  0  0  0  0  0  0  0  0  0
   -8.6018    5.4413    0.7207 H   0  0  0  0  0  0  0  0  0  0
   -7.4651   -3.7541   -0.7077 H   0  0  0  0  0  0  0  0  0  0
   -8.7000   -5.8809   -0.9596 H   0  0  0  0  0  0  0  0  0  0
   -4.9878   -8.0658   -0.6500 H   0  0  0  0  0  0  0  0  0  0
   -3.7601   -5.9569   -0.4233 H   0  0  0  0  0  0  0  0  0  0
  -13.9987    2.8001   -0.0389 H   0  0  0  0  0  0  0  0  0  0
  -14.9675    3.9979    0.8806 H   0  0  0  0  0  0  0  0  0  0
  -13.9189    2.8340    1.7584 H   0  0  0  0  0  0  0  0  0  0
   -6.5289   -9.6627    0.0249 H   0  0  0  0  0  0  0  0  0  0
   -6.3419   -9.6037   -1.7654 H   0  0  0  0  0  0  0  0  0  0
   -7.8486  -10.2549   -1.0379 H   0  0  0  0  0  0  0  0  0  0
  3  2  1  0  0  0
  4  3  2  0  0  0
  5  4  1  0  0  0
  6  5  2  0  0  0
  1  2  2  0  0  0
  1  6  1  0  0  0
  8  7  2  0  0  0
  9  8  1  0  0  0
 10  9  2  0  0  0
  4  7  1  0  0  0
 12 11  2  0  0  0
 13 12  1  0  0  0
 14 13  2  0  0  0
 10 11  1  0  0  0
  9 14  1  0  0  0
 16 15  1  0  0  0
 17 16  2  0  0  0
  8 15  1  0  0  0
  7 17  1  0  0  0
 16 18  1  0  0  0
 20 19  1  0  0  0
 21 20  2  0  0  0
 22 21  1  0  0  0
 23 22  2  0  0  0
 18 19  2  0  0  0
 18 23  1  0  0  0
 24 25  1  0  0  0
 24 26  1  0  0  0
 26 27  3  0  0  0
 25 28  2  0  0  0
 25 29  1  0  0  0
  1 30  1  0  0  0
  2 31  1  0  0  0
  5 32  1  0  0  0
  6 33  1  0  0  0
 11 34  1  0  0  0
 12 35  1  0  0  0
 13 36  1  0  0  0
 14 37  1  0  0  0
 19 38  1  0  0  0
 20 39  1  0  0  0
 22 40  1  0  0  0
 23 41  1  0  0  0
 29 42  1  0  0  0
 21 43  1  0  0  0
 24 43  2  0  0  0
 15 44  1  0  0  0
  3 45  1  0  0  0
 10 46  1  0  0  0
 43 47  1  0  0  0
 49 48  2  0  0  0
 50 49  1  0  0  0
 51 50  2  0  0  0
 52 51  1  0  0  0
 30 48  1  0  0  0
 30 52  2  0  0  0
 54 53  1  0  0  0
 55 54  2  0  0  0
 56 55  1  0  0  0
 57 56  2  0  0  0
 35 53  2  0  0  0
 35 57  1  0  0  0
 50 58  1  0  0  0
 55 59  1  0  0  0
 58 60  1  0  0  0
 59 61  1  0  0  0
 48 62  1  0  0  0
 49 63  1  0  0  0
 51 64  1  0  0  0
 52 65  1  0  0  0
 53 66  1  0  0  0
 54 67  1  0  0  0
 56 68  1  0  0  0
 57 69  1  0  0  0
 60 70  1  0  0  0
 60 71  1  0  0  0
 60 72  1  0  0  0
 61 73  1  0  0  0
 61 74  1  0  0  0
 61 75  1  0  0  0
M  END
