Rutin-1137
  MatStudio         3D                             0

 94 98  0  0  0  0  0  0  0  0999 V2000
   10.5559   -1.4113   -0.2294 O   0  0  0  0  0  0  0  0  0  1
    8.8126   -4.1154   -1.8977 O   0  0  0  0  0  0  0  0  0  2
    7.7439   -5.7336   -0.5287 O   0  0  0  0  0  0  0  0  0  3
   11.1692   -3.0653   -3.4480 O   0  0  0  0  0  0  0  0  0  4
   13.0856   -0.9339   -3.5031 O   0  0  0  0  0  0  0  0  0  5
   11.1803    0.4972    0.7496 O   0  0  0  0  0  0  0  0  0  6
   13.3192   -0.3708   -0.8198 O   0  0  0  0  0  0  0  0  0  7
    6.1042   -3.7809   -3.1649 O   0  0  0  0  0  0  0  0  0  8
    4.8158   -5.4107   -1.2555 O   0  0  0  0  0  0  0  0  0  9
    5.3982   -7.9085   -0.9215 O   0  0  0  0  0  0  0  0  0 10
    9.8267    3.8858    1.0120 O   0  0  0  0  0  0  0  0  0 11
   13.4841    2.0289    0.6051 O   0  0  0  0  0  0  0  0  0 12
   14.6095    4.3375    0.6207 O   0  0  0  0  0  0  0  0  0 13
   11.7253    8.1748    0.9469 O   0  0  0  0  0  0  0  0  0 14
    5.1300    2.4098   -0.3108 O   0  0  0  0  0  0  0  0  0 15
    4.8556    0.0233    0.6754 O   0  0  0  0  0  0  0  0  0 16
   13.4384   11.3589    0.7883 O   0  0  0  0  0  0  0  0  0 17
    5.8522    4.9175   -2.9623 O   0  0  0  0  0  0  0  0  0 18
    4.8424   -1.7772   -1.5658 O   0  0  0  0  0  0  0  0  0 19
   10.1966   -2.1654   -1.4107 C   0  0  0  0  0  0  0  0  0 20
   11.4508   -2.2805   -2.2825 C   0  0  0  0  0  0  0  0  0 21
   11.9039   -0.8746   -2.6906 C   0  0  0  0  0  0  0  0  0 22
   12.1145    0.0289   -1.4728 C   0  0  0  0  0  0  0  0  0 23
    6.7280   -4.9636   -2.6377 C   0  0  0  0  0  0  0  0  0 24
    7.5771   -4.6256   -1.4057 C   0  0  0  0  0  0  0  0  0 25
    5.6490   -5.9725   -2.2805 C   0  0  0  0  0  0  0  0  0 26
    6.3329   -7.2876   -1.8209 C   0  0  0  0  0  0  0  0  0 27
   10.8941   -0.0724   -0.5424 C   0  0  0  0  0  0  0  0  0 28
    9.6175   -3.4804   -0.8859 C   0  0  0  0  0  0  0  0  0 29
    7.7281   -7.0136   -1.2150 C   0  0  0  0  0  0  0  0  0 30
    8.1987   -8.0645   -0.2287 C   0  0  0  0  0  0  0  0  0 31
   11.1090    1.8773    0.8101 C   0  0  0  0  0  0  0  0  0 32
    9.8942    2.5186    0.9583 C   0  0  0  0  0  0  0  0  0 33
   12.3483    2.6121    0.7446 C   0  0  0  0  0  0  0  0  0 34
   12.2364    4.0440    0.8150 C   0  0  0  0  0  0  0  0  0 35
    8.5823    1.8787    0.9953 C   0  0  0  0  0  0  0  0  0 36
   10.9700    4.6537    0.9299 C   0  0  0  0  0  0  0  0  0 37
   13.3806    4.8892    0.7366 C   0  0  0  0  0  0  0  0  0 38
   10.8054    6.0288    0.9734 C   0  0  0  0  0  0  0  0  0 39
    7.4839    2.5199    0.3750 C   0  0  0  0  0  0  0  0  0 40
    8.3943    0.6260    1.5994 C   0  0  0  0  0  0  0  0  0 41
   13.2402    6.2758    0.7722 C   0  0  0  0  0  0  0  0  0 42
   11.9560    6.8330    0.8957 C   0  0  0  0  0  0  0  0  0 43
    6.2463    1.8907    0.2933 C   0  0  0  0  0  0  0  0  0 44
    7.1490    0.0020    1.5391 C   0  0  0  0  0  0  0  0  0 45
    6.0804    0.5880    0.8502 C   0  0  0  0  0  0  0  0  0 46
   12.8611    9.0626    0.8349 C   0  0  0  0  0  0  0  0  0 47
    5.2262    3.7083   -0.9412 C   0  0  0  0  0  0  0  0  0 48
    4.6972   -1.4146    0.8413 C   0  0  0  0  0  0  0  0  0 49
   12.3106   10.4763    0.9035 C   0  0  0  0  0  0  0  0  0 50
    5.8206    3.6198   -2.3467 C   0  0  0  0  0  0  0  0  0 51
    4.0323   -1.9754   -0.4009 C   0  0  0  0  0  0  0  0  0 52
    9.4009   -1.6345   -1.9677 H   0  0  0  0  0  0  0  0  0 53
   12.2409   -2.7615   -1.6778 H   0  0  0  0  0  0  0  0  0 54
   11.1151   -0.4401   -3.3251 H   0  0  0  0  0  0  0  0  0 55
   12.1961    1.0748   -1.8212 H   0  0  0  0  0  0  0  0  0 56
    7.3766   -5.4097   -3.4097 H   0  0  0  0  0  0  0  0  0 57
    7.0765   -3.8535   -0.8021 H   0  0  0  0  0  0  0  0  0 58
    5.0373   -6.1789   -3.1759 H   0  0  0  0  0  0  0  0  0 59
    6.4797   -7.9321   -2.7048 H   0  0  0  0  0  0  0  0  0 60
   10.0277    0.4453   -0.9981 H   0  0  0  0  0  0  0  0  0 61
   10.4182   -4.1643   -0.5639 H   0  0  0  0  0  0  0  0  0 62
    8.9984   -3.2384   -0.0074 H   0  0  0  0  0  0  0  0  0 63
    8.4418   -6.9682   -2.0574 H   0  0  0  0  0  0  0  0  0 64
    7.5510   -8.0867    0.6589 H   0  0  0  0  0  0  0  0  0 65
    9.2265   -7.8441    0.0883 H   0  0  0  0  0  0  0  0  0 66
    8.1920   -9.0595   -0.6967 H   0  0  0  0  0  0  0  0  0 67
   11.9366   -2.9250   -4.0378 H   0  0  0  0  0  0  0  0  0 68
   13.8310   -0.9908   -2.8694 H   0  0  0  0  0  0  0  0  0 69
   13.5172    0.3703   -0.1913 H   0  0  0  0  0  0  0  0  0 70
    6.8203   -3.2068   -3.4969 H   0  0  0  0  0  0  0  0  0 71
    4.5418   -6.1674   -0.6980 H   0  0  0  0  0  0  0  0  0 72
    5.7401   -8.7876   -0.6795 H   0  0  0  0  0  0  0  0  0 73
    9.8187    6.4782    1.0687 H   0  0  0  0  0  0  0  0  0 74
    7.6346    3.4937   -0.0857 H   0  0  0  0  0  0  0  0  0 75
    9.2131    0.1352    2.1211 H   0  0  0  0  0  0  0  0  0 76
   14.1321    6.8946    0.7055 H   0  0  0  0  0  0  0  0  0 77
    7.0165   -0.9547    2.0401 H   0  0  0  0  0  0  0  0  0 78
   14.4398    3.3335    0.5826 H   0  0  0  0  0  0  0  0  0 79
   13.3766    8.8954   -0.1233 H   0  0  0  0  0  0  0  0  0 80
   13.5652    8.8831    1.6614 H   0  0  0  0  0  0  0  0  0 81
    5.7919    4.4111   -0.3124 H   0  0  0  0  0  0  0  0  0 82
    4.1876    4.0625   -0.9963 H   0  0  0  0  0  0  0  0  0 83
    4.0695   -1.5842    1.7301 H   0  0  0  0  0  0  0  0  0 84
    5.6701   -1.8948    0.9915 H   0  0  0  0  0  0  0  0  0 85
   11.5942   10.6346    0.0803 H   0  0  0  0  0  0  0  0  0 86
   11.7812   10.6246    1.8602 H   0  0  0  0  0  0  0  0  0 87
    6.8624    3.2724   -2.3160 H   0  0  0  0  0  0  0  0  0 88
    5.2404    2.8997   -2.9467 H   0  0  0  0  0  0  0  0  0 89
    3.8399   -3.0458   -0.2250 H   0  0  0  0  0  0  0  0  0 90
    3.0659   -1.4702   -0.5573 H   0  0  0  0  0  0  0  0  0 91
   13.0937   12.2677    0.8445 H   0  0  0  0  0  0  0  0  0 92
    4.9304    5.1711   -3.1517 H   0  0  0  0  0  0  0  0  0 93
    5.1822   -2.6441   -1.8807 H   0  0  0  0  0  0  0  0  0 94
  1 20  1  0  0  0
  1 28  1  0  0  0
  2 25  1  0  0  0
  2 29  1  0  0  0
  3 25  1  0  0  0
  3 30  1  0  0  0
  4 21  1  0  0  0
  4 68  1  0  0  0
  5 22  1  0  0  0
  5 69  1  0  0  0
  6 28  1  0  0  0
  6 32  1  0  0  0
  7 23  1  0  0  0
  7 70  1  0  0  0
  8 24  1  0  0  0
  8 71  1  0  0  0
  9 26  1  0  0  0
  9 72  1  0  0  0
 10 27  1  0  0  0
 10 73  1  0  0  0
 11 33  1  0  0  0
 11 37  1  0  0  0
 12 34  2  0  0  0
 13 38  1  0  0  0
 13 79  1  0  0  0
 14 43  1  0  0  0
 14 47  1  0  0  0
 15 44  1  0  0  0
 15 48  1  0  0  0
 16 46  1  0  0  0
 16 49  1  0  0  0
 17 50  1  0  0  0
 17 92  1  0  0  0
 18 51  1  0  0  0
 18 93  1  0  0  0
 19 52  1  0  0  0
 19 94  1  0  0  0
 20 21  1  0  0  0
 20 29  1  0  0  0
 20 53  1  0  0  0
 21 22  1  0  0  0
 21 54  1  0  0  0
 22 23  1  0  0  0
 22 55  1  0  0  0
 23 28  1  0  0  0
 23 56  1  0  0  0
 24 25  1  0  0  0
 24 26  1  0  0  0
 24 57  1  0  0  0
 25 58  1  0  0  0
 26 27  1  0  0  0
 26 59  1  0  0  0
 27 30  1  0  0  0
 27 60  1  0  0  0
 28 61  1  0  0  0
 29 62  1  0  0  0
 29 63  1  0  0  0
 30 31  1  0  0  0
 30 64  1  0  0  0
 31 65  1  0  0  0
 31 66  1  0  0  0
 31 67  1  0  0  0
 32 33  2  0  0  0
 32 34  1  0  0  0
 33 36  1  0  0  0
 34 35  1  0  0  0
 35 37  1  0  0  0
 35 38  2  0  0  0
 36 40  2  0  0  0
 36 41  1  0  0  0
 37 39  2  0  0  0
 38 42  1  0  0  0
 39 43  1  0  0  0
 39 74  1  0  0  0
 40 44  1  0  0  0
 40 75  1  0  0  0
 41 45  2  0  0  0
 41 76  1  0  0  0
 42 43  2  0  0  0
 42 77  1  0  0  0
 44 46  2  0  0  0
 45 46  1  0  0  0
 45 78  1  0  0  0
 47 50  1  0  0  0
 47 80  1  0  0  0
 47 81  1  0  0  0
 48 51  1  0  0  0
 48 82  1  0  0  0
 48 83  1  0  0  0
 49 52  1  0  0  0
 49 84  1  0  0  0
 49 85  1  0  0  0
 50 86  1  0  0  0
 50 87  1  0  0  0
 51 88  1  0  0  0
 51 89  1  0  0  0
 52 90  1  0  0  0
 52 91  1  0  0  0
M  END
