T1-simp-4514
  MatStudio         3D                             0

 39 40  0  0  0  0  0  0  0  0999 V2000
   16.4114  -12.2882   -1.3264 C   0  0  0  0  0  0  0  0  0  1
   17.1071  -12.9113   -0.2053 O   0  0  0  0  0  0  0  0  0  2
   21.1747  -12.2186    0.5176 C   0  0  0  0  0  0  0  0  0  3
   20.3754  -13.0449    1.3557 C   0  0  0  0  0  0  0  0  0  4
   20.5422  -11.6336   -0.6093 C   0  0  0  0  0  0  0  0  0  5
   19.0370  -13.2562    1.0810 C   0  0  0  0  0  0  0  0  0  6
   19.1958  -11.8320   -0.8918 C   0  0  0  0  0  0  0  0  0  7
   18.4268  -12.6480   -0.0402 C   0  0  0  0  0  0  0  0  0  8
   14.9642  -12.7236   -1.2623 C   0  0  0  0  0  0  0  0  0  9
   22.5648  -11.9180    0.7060 C   0  0  0  0  0  0  0  0  0 10
   23.4644  -12.2530    1.7042 C   0  0  0  0  0  0  0  0  0 11
   23.1006  -13.0388    2.8374 C   0  0  0  0  0  0  0  0  0 12
   22.8445  -13.6969    3.7739 N   0  0  0  0  0  0  0  0  0 13
   24.8484  -11.8030    1.6647 C   0  0  0  0  0  0  0  0  0 14
   25.9238  -12.1274    2.9801 S   0  0  0  0  0  0  0  0  0 15
   25.5050  -11.0793    0.6564 C   0  0  0  0  0  0  0  0  0 16
   27.2556  -11.2962    2.1992 C   0  0  0  0  0  0  0  0  0 17
   26.8397  -10.7994    0.9522 C   0  0  0  0  0  0  0  0  0 18
   28.4910  -11.2367    2.8898 C   0  0  0  0  0  0  0  0  0 19
   16.8899  -12.6120   -2.2640 H   0  0  0  0  0  0  0  0  0 20
   16.5079  -11.1952   -1.2356 H   0  0  0  0  0  0  0  0  0 21
   20.8068  -13.5296    2.2289 H   0  0  0  0  0  0  0  0  0 22
   21.1325  -10.9989   -1.2731 H   0  0  0  0  0  0  0  0  0 23
   18.4301  -13.8920    1.7263 H   0  0  0  0  0  0  0  0  0 24
   14.5019  -12.4108   -0.3148 H   0  0  0  0  0  0  0  0  0 25
   14.8746  -13.8147   -1.3599 H   0  0  0  0  0  0  0  0  0 26
   22.9825  -11.2894   -0.0835 H   0  0  0  0  0  0  0  0  0 27
   25.0256  -10.7725   -0.2711 H   0  0  0  0  0  0  0  0  0 28
   27.4940  -10.2443    0.2838 H   0  0  0  0  0  0  0  0  0 29
   28.5149  -11.7305    3.8635 H   0  0  0  0  0  0  0  0  0 30
   29.6825  -10.6334    2.5194 C   0  0  0  0  0  0  0  0  0 31
   29.8530   -9.9373    1.2949 C   0  0  0  0  0  0  0  0  0 32
   30.8797  -10.6654    3.3779 C   0  0  0  0  0  0  0  0  0 33
   31.9508  -10.1328    3.0793 O   0  0  0  0  0  0  0  0  0 34
   30.6937  -11.3408    4.5432 O   0  0  0  0  0  0  0  0  0 35
   29.9823   -9.3646    0.2787 N   0  0  0  0  0  0  0  0  0 36
   31.5451  -11.2950    5.0289 H   0  0  0  0  0  0  0  0  0 37
   18.7539  -11.3546   -1.7642 H   0  0  0  0  0  0  0  0  0 38
   14.4112  -12.2536   -2.0881 H   0  0  0  0  0  0  0  0  0 39
  3  4  1  0  0  0
  3  5  2  0  0  0
  4  6  2  0  0  0
  5  7  1  0  0  0
  6  8  1  0  0  0
  7  8  2  0  0  0
  2  8  1  0  0  0
  1  2  1  0  0  0
  1  9  1  0  0  0
  3 10  1  0  0  0
 10 11  2  0  0  0
 11 12  1  0  0  0
 12 13  3  0  0  0
 14 15  1  0  0  0
 14 16  2  0  0  0
 15 17  1  0  0  0
 16 18  1  0  0  0
 17 18  2  0  0  0
 11 14  1  0  0  0
 17 19  1  0  0  0
  1 20  1  0  0  0
  1 21  1  0  0  0
  4 22  1  0  0  0
  5 23  1  0  0  0
  6 24  1  0  0  0
  9 25  1  0  0  0
  9 26  1  0  0  0
 10 27  1  0  0  0
 16 28  1  0  0  0
 18 29  1  0  0  0
 19 30  1  0  0  0
 19 31  2  0  0  0
 31 32  1  0  0  0
 31 33  1  0  0  0
 33 34  2  0  0  0
 33 35  1  0  0  0
 32 36  3  0  0  0
 35 37  1  0  0  0
  7 38  1  0  0  0
  9 39  1  0  0  0
M  END
