T3-simp-33665
  MatStudio         3D                             0

 43 45  0  0  0  0  0  0  0  0999 V2000
   29.8190  -10.1277    1.8604 O   0  0  0  0  0  0  0  0  0  1
   28.7823   -6.1872   -0.6902 O   0  0  0  0  0  0  0  0  0  2
   19.8524  -16.6366   -5.4128 C   0  0  0  0  0  0  0  0  0  3
   20.3498  -15.3195   -5.8093 O   0  0  0  0  0  0  0  0  0  4
   23.3414  -13.3352   -3.6433 C   0  0  0  0  0  0  0  0  0  5
   22.8304  -14.5730   -3.1780 C   0  0  0  0  0  0  0  0  0  6
   22.7577  -12.7948   -4.8218 C   0  0  0  0  0  0  0  0  0  7
   21.8311  -15.2531   -3.8583 C   0  0  0  0  0  0  0  0  0  8
   21.7714  -13.4718   -5.5189 C   0  0  0  0  0  0  0  0  0  9
   21.3054  -14.7217   -5.0540 C   0  0  0  0  0  0  0  0  0 10
   20.8034  -17.7514   -5.8075 C   0  0  0  0  0  0  0  0  0 11
   24.3900  -12.5930   -2.9978 C   0  0  0  0  0  0  0  0  0 12
   25.2699  -12.9712   -1.9967 C   0  0  0  0  0  0  0  0  0 13
   25.3180  -14.3058   -1.4926 C   0  0  0  0  0  0  0  0  0 14
   25.4235  -15.3865   -1.0501 N   0  0  0  0  0  0  0  0  0 15
   26.2381  -12.0874   -1.3701 C   0  0  0  0  0  0  0  0  0 16
   26.3975  -10.4045   -1.7289 S   0  0  0  0  0  0  0  0  0 17
   27.1486  -12.4681   -0.3707 C   0  0  0  0  0  0  0  0  0 18
   27.6783  -10.1920   -0.5247 C   0  0  0  0  0  0  0  0  0 19
   27.9420  -11.4239    0.0973 C   0  0  0  0  0  0  0  0  0 20
   28.2030   -8.8867   -0.3856 C   0  0  0  0  0  0  0  0  0 21
   29.1361   -8.2848    0.4531 C   0  0  0  0  0  0  0  0  0 22
   29.3449   -6.8408    0.2019 C   0  0  0  0  0  0  0  0  0 23
   29.8753   -8.9296    1.5398 C   0  0  0  0  0  0  0  0  0 24
   30.2486   -6.1936    1.0437 N   0  0  0  0  0  0  0  0  0 25
   30.7162   -8.0961    2.2835 N   0  0  0  0  0  0  0  0  0 26
   30.9534   -6.7494    2.0953 C   0  0  0  0  0  0  0  0  0 27
   31.7259   -6.0989    2.8054 O   0  0  0  0  0  0  0  0  0 28
   18.8998  -16.7226   -5.9508 H   0  0  0  0  0  0  0  0  0 29
   19.6356  -16.6330   -4.3346 H   0  0  0  0  0  0  0  0  0 30
   23.1968  -15.0105   -2.2526 H   0  0  0  0  0  0  0  0  0 31
   23.1029  -11.8265   -5.1897 H   0  0  0  0  0  0  0  0  0 32
   21.4737  -16.1982   -3.4549 H   0  0  0  0  0  0  0  0  0 33
   21.3374  -13.0539   -6.4277 H   0  0  0  0  0  0  0  0  0 34
   21.7704  -17.6737   -5.2910 H   0  0  0  0  0  0  0  0  0 35
   20.9824  -17.7456   -6.8922 H   0  0  0  0  0  0  0  0  0 36
   24.5136  -11.5707   -3.3701 H   0  0  0  0  0  0  0  0  0 37
   27.2104  -13.4887    0.0034 H   0  0  0  0  0  0  0  0  0 38
   28.6993  -11.5112    0.8696 H   0  0  0  0  0  0  0  0  0 39
   27.7812   -8.1577   -1.0870 H   0  0  0  0  0  0  0  0  0 40
   30.3999   -5.1992    0.8764 H   0  0  0  0  0  0  0  0  0 41
   31.2244   -8.5401    3.0483 H   0  0  0  0  0  0  0  0  0 42
   20.3509  -18.7174   -5.5355 H   0  0  0  0  0  0  0  0  0 43
  5  6  1  0  0  0
  5  7  2  0  0  0
  6  8  2  0  0  0
  7  9  1  0  0  0
  8 10  1  0  0  0
  9 10  2  0  0  0
  4 10  1  0  0  0
  3  4  1  0  0  0
  3 11  1  0  0  0
  5 12  1  0  0  0
 12 13  2  0  0  0
 13 14  1  0  0  0
 14 15  3  0  0  0
 16 17  1  0  0  0
 16 18  2  0  0  0
 17 19  1  0  0  0
 18 20  1  0  0  0
 19 20  2  0  0  0
 13 16  1  0  0  0
 19 21  1  0  0  0
 22 23  1  0  0  0
 22 24  1  0  0  0
 23 25  1  0  0  0
 24 26  1  0  0  0
 25 27  1  0  0  0
 26 27  1  0  0  0
 21 22  2  0  0  0
  2 23  2  0  0  0
  1 24  2  0  0  0
 27 28  2  0  0  0
  3 29  1  0  0  0
  3 30  1  0  0  0
  6 31  1  0  0  0
  7 32  1  0  0  0
  8 33  1  0  0  0
  9 34  1  0  0  0
 11 35  1  0  0  0
 11 36  1  0  0  0
 12 37  1  0  0  0
 18 38  1  0  0  0
 20 39  1  0  0  0
 21 40  1  0  0  0
 25 41  1  0  0  0
 26 42  1  0  0  0
 11 43  1  0  0  0
M  END
