Catechin-4
  MatStudio         3D                             0

 35 37  0  0  0  0  0  0  0  0999 V2000
    5.6080   -3.3279   -0.3054 O   0  0  0  0  0  0  0  0  0  1
    4.5234   -4.9585    1.6893 O   0  0  0  0  0  0  0  0  0  2
    8.6676   -6.8387    0.5968 O   0  0  0  0  0  0  0  0  0  3
   10.2188   -2.3828    0.1665 O   0  0  0  0  0  0  0  0  0  4
    1.2993   -1.1342    1.1748 O   0  0  0  0  0  0  0  0  0  5
   -0.4560   -1.8689   -0.6284 O   0  0  0  0  0  0  0  0  0  6
    4.6914   -5.4451    0.3730 C   0  0  0  0  0  0  0  0  0  7
    4.6102   -4.3046   -0.6325 C   0  0  0  0  0  0  0  0  0  8
    6.0137   -6.1495    0.1939 C   0  0  0  0  0  0  0  0  0  9
    7.1170   -5.1505    0.1483 C   0  0  0  0  0  0  0  0  0 10
    6.8683   -3.8004   -0.0862 C   0  0  0  0  0  0  0  0  0 11
    3.2905   -3.6255   -0.6549 C   0  0  0  0  0  0  0  0  0 12
    8.4446   -5.5195    0.3755 C   0  0  0  0  0  0  0  0  0 13
    7.8807   -2.8476   -0.0787 C   0  0  0  0  0  0  0  0  0 14
    2.9694   -2.6662    0.3018 C   0  0  0  0  0  0  0  0  0 15
    2.3427   -3.9903   -1.6017 C   0  0  0  0  0  0  0  0  0 16
    9.4779   -4.5974    0.3782 C   0  0  0  0  0  0  0  0  0 17
    9.1825   -3.2578    0.1549 C   0  0  0  0  0  0  0  0  0 18
    1.7173   -2.0865    0.2996 C   0  0  0  0  0  0  0  0  0 19
    1.0795   -3.4131   -1.5993 C   0  0  0  0  0  0  0  0  0 20
    0.7628   -2.4591   -0.6499 C   0  0  0  0  0  0  0  0  0 21
    5.2628   -4.3402    1.8684 H   0  0  0  0  0  0  0  0  0 22
    9.6196   -6.9748    0.7781 H   0  0  0  0  0  0  0  0  0 23
    9.8785   -1.4824   -0.0103 H   0  0  0  0  0  0  0  0  0 24
    2.0144   -0.9166    1.8063 H   0  0  0  0  0  0  0  0  0 25
   -0.4557   -1.2302    0.1208 H   0  0  0  0  0  0  0  0  0 26
    3.8540   -6.1372    0.1861 H   0  0  0  0  0  0  0  0  0 27
    4.8292   -4.7170   -1.6377 H   0  0  0  0  0  0  0  0  0 28
    5.9869   -6.7550   -0.7317 H   0  0  0  0  0  0  0  0  0 29
    6.1696   -6.8597    1.0242 H   0  0  0  0  0  0  0  0  0 30
    7.6388   -1.7972   -0.2668 H   0  0  0  0  0  0  0  0  0 31
    3.7096   -2.3663    1.0511 H   0  0  0  0  0  0  0  0  0 32
    2.5958   -4.7369   -2.3617 H   0  0  0  0  0  0  0  0  0 33
   10.5121   -4.9103    0.5518 H   0  0  0  0  0  0  0  0  0 34
    0.3274   -3.6874   -2.3445 H   0  0  0  0  0  0  0  0  0 35
  1  8  1  0  0  0
  1 11  1  0  0  0
  7  2  1  0  0  0
  3 13  1  0  0  0
  4 18  1  0  0  0
  5 19  1  0  0  0
  6 21  1  0  0  0
  7  8  1  0  0  0
  7  9  1  0  0  0
  8 12  1  0  0  0
  9 10  1  0  0  0
 10 11  2  0  0  0
 10 13  1  0  0  0
 11 14  1  0  0  0
 12 15  2  0  0  0
 12 16  1  0  0  0
 13 17  2  0  0  0
 14 18  2  0  0  0
 15 19  1  0  0  0
 16 20  2  0  0  0
 17 18  1  0  0  0
 19 21  2  0  0  0
 20 21  1  0  0  0
  2 22  1  0  0  0
  3 23  1  0  0  0
  4 24  1  0  0  0
  5 25  1  0  0  0
  6 26  1  0  0  0
  7 27  1  0  0  0
  8 28  1  0  0  0
  9 29  1  0  0  0
  9 30  1  0  0  0
 14 31  1  0  0  0
 15 32  1  0  0  0
 16 33  1  0  0  0
 17 34  1  0  0  0
 20 35  1  0  0  0
M  END
