D2-29
  MatStudio         3D                             0

 46 49  0  0  0  0  0  0  0  0999 V2000
   20.5745  -10.7700    0.0748 O   0  0  0  0  0  0  0  0  0  1
   22.7958  -11.2950   -1.2190 O   0  0  0  0  0  0  0  0  0  2
   14.8015  -15.2898    4.2060 O   0  0  0  0  0  0  0  0  0  3
   20.5043  -17.3031   -0.4967 O   0  0  0  0  0  0  0  0  0  4
   18.5588  -18.9099    0.6056 O   0  0  0  0  0  0  0  0  0  5
   17.6521  -15.7089    1.9967 C   0  0  0  0  0  0  0  0  0  6
   17.5744  -17.0701    1.7180 C   0  0  0  0  0  0  0  0  0  7
   16.7442  -15.0753    2.8296 C   0  0  0  0  0  0  0  0  0  8
   16.5416  -17.8059    2.3058 C   0  0  0  0  0  0  0  0  0  9
   15.7287  -15.8290    3.3922 C   0  0  0  0  0  0  0  0  0 10
   15.6253  -17.2026    3.1303 C   0  0  0  0  0  0  0  0  0 11
   19.5484  -15.4492    0.6104 C   0  0  0  0  0  0  0  0  0 12
   19.5381  -16.7875    0.3021 C   0  0  0  0  0  0  0  0  0 13
   18.6298  -14.9377    1.4691 O   0  0  0  0  0  0  0  0  0 14
   18.5551  -17.6871    0.8556 C   0  0  0  0  0  0  0  0  0 15
   20.4426  -14.4217    0.1173 C   0  0  0  0  0  0  0  0  0 16
   21.6285  -14.7118   -0.5683 C   0  0  0  0  0  0  0  0  0 17
   20.0995  -13.0798    0.3384 C   0  0  0  0  0  0  0  0  0 18
   22.4422  -13.6887   -1.0247 C   0  0  0  0  0  0  0  0  0 19
   20.9066  -12.0650   -0.1238 C   0  0  0  0  0  0  0  0  0 20
   22.0863  -12.3697   -0.8116 C   0  0  0  0  0  0  0  0  0 21
   20.0328  -17.8571   -1.7456 C   0  0  0  0  0  0  0  0  0 22
   19.4466  -16.7872   -2.6300 C   0  0  0  0  0  0  0  0  0 23
   21.2093  -18.5169   -2.4049 C   0  0  0  0  0  0  0  0  0 24
   19.0926  -17.3881   -3.9721 C   0  0  0  0  0  0  0  0  0 25
   20.7958  -19.0476   -3.7601 C   0  0  0  0  0  0  0  0  0 26
   20.2765  -17.9674   -4.5725 N   0  0  0  0  0  0  0  0  0 27
   21.2780  -10.2190   -0.3376 H   0  0  0  0  0  0  0  0  0 28
   23.6042  -11.5738   -1.6964 H   0  0  0  0  0  0  0  0  0 29
   14.9747  -14.3321    4.3187 H   0  0  0  0  0  0  0  0  0 30
   16.8363  -14.0030    3.0271 H   0  0  0  0  0  0  0  0  0 31
   16.4937  -18.8757    2.0808 H   0  0  0  0  0  0  0  0  0 32
   14.8108  -17.7659    3.5932 H   0  0  0  0  0  0  0  0  0 33
   21.9096  -15.7515   -0.7364 H   0  0  0  0  0  0  0  0  0 34
   19.1823  -12.8175    0.8705 H   0  0  0  0  0  0  0  0  0 35
   23.3732  -13.9143   -1.5552 H   0  0  0  0  0  0  0  0  0 36
   19.2625  -18.6170   -1.5102 H   0  0  0  0  0  0  0  0  0 37
   20.1960  -15.9849   -2.7665 H   0  0  0  0  0  0  0  0  0 38
   18.5507  -16.3450   -2.1589 H   0  0  0  0  0  0  0  0  0 39
   21.5931  -19.3322   -1.7685 H   0  0  0  0  0  0  0  0  0 40
   22.0136  -17.7679   -2.5322 H   0  0  0  0  0  0  0  0  0 41
   18.6840  -16.6148   -4.6432 H   0  0  0  0  0  0  0  0  0 42
   18.2895  -18.1496   -3.8181 H   0  0  0  0  0  0  0  0  0 43
   20.0371  -19.8530   -3.6055 H   0  0  0  0  0  0  0  0  0 44
   21.6590  -19.5050   -4.2708 H   0  0  0  0  0  0  0  0  0 45
   20.0557  -18.3142   -5.5104 H   0  0  0  0  0  0  0  0  0 46
  6  8  2  0  0  0
  7  9  2  0  0  0
  8 10  1  0  0  0
  9 11  1  0  0  0
 10 11  2  0  0  0
 12 13  2  0  0  0
 12 14  1  0  0  0
 13 15  1  0  0  0
 14  6  1  0  0  0
 15  7  1  0  0  0
  6  7  1  0  0  0
 16 17  1  0  0  0
 16 18  2  0  0  0
 17 19  2  0  0  0
 18 20  1  0  0  0
 19 21  1  0  0  0
 20 21  2  0  0  0
 12 16  1  0  0  0
  5 15  2  0  0  0
  4 13  1  0  0  0
  3 10  1  0  0  0
  2 21  1  0  0  0
  1 20  1  0  0  0
 22 23  1  0  0  0
 22 24  1  0  0  0
 23 25  1  0  0  0
 24 26  1  0  0  0
 25 27  1  0  0  0
 26 27  1  0  0  0
  4 22  1  0  0  0
  1 28  1  0  0  0
  2 29  1  0  0  0
  3 30  1  0  0  0
  8 31  1  0  0  0
  9 32  1  0  0  0
 11 33  1  0  0  0
 17 34  1  0  0  0
 18 35  1  0  0  0
 19 36  1  0  0  0
 22 37  1  0  0  0
 23 38  1  0  0  0
 23 39  1  0  0  0
 24 40  1  0  0  0
 24 41  1  0  0  0
 25 42  1  0  0  0
 25 43  1  0  0  0
 26 44  1  0  0  0
 26 45  1  0  0  0
 27 46  1  0  0  0
M  END
