Phenothiazine1-1206
  MatStudio         3D                             0

 37 39  0  0  0  0  0  0  0  0999 V2000
   -5.2638   -0.0710   -0.6006 C   0  0  0  0  0  0  0  0  0  1
   -4.3259   -0.9680   -1.0891 C   0  0  0  0  0  0  0  0  0  2
   -3.0285   -0.5346   -1.3246 C   0  0  0  0  0  0  0  0  0  3
   -2.6836    0.7931   -1.1116 C   0  0  0  0  0  0  0  0  0  4
   -3.6271    1.7090   -0.6330 C   0  0  0  0  0  0  0  0  0  5
   -4.9143    1.2506   -0.3595 C   0  0  0  0  0  0  0  0  0  6
   -3.2683    3.0461   -0.4016 N   0  0  0  0  0  0  0  0  0  7
   -2.0131    3.3533    0.0653 C   0  0  0  0  0  0  0  0  0  8
   -0.8945    2.5798   -0.3050 C   0  0  0  0  0  0  0  0  0  9
   -1.0731    1.3397   -1.5260 S   0  0  0  0  0  0  0  0  0 10
    0.3547    2.8756    0.1918 C   0  0  0  0  0  0  0  0  0 11
    0.5616    3.9612    1.0644 C   0  0  0  0  0  0  0  0  0 12
   -0.5560    4.7363    1.4170 C   0  0  0  0  0  0  0  0  0 13
   -1.8062    4.4427    0.9262 C   0  0  0  0  0  0  0  0  0 14
   -4.3085    4.0611   -0.3303 C   0  0  0  0  0  0  0  0  0 15
   -3.9688    5.2753   -1.1580 C   0  0  0  0  0  0  0  0  0 16
    1.8813    4.1915    1.5276 C   0  0  0  0  0  0  0  0  0 17
    2.3674    5.0595    2.4693 C   0  0  0  0  0  0  0  0  0 18
    1.5756    5.9212    3.2457 C   0  0  0  0  0  0  0  0  0 19
    3.8130    5.0703    2.7068 C   0  0  0  0  0  0  0  0  0 20
    4.6165    4.3755    2.1030 O   0  0  0  0  0  0  0  0  0 21
    4.1669    5.9347    3.6660 O   0  0  0  0  0  0  0  0  0 22
    0.9232    6.6231    3.9134 N   0  0  0  0  0  0  0  0  0 23
   -6.2851   -0.3997   -0.3864 H   0  0  0  0  0  0  0  0  0 24
   -4.5960   -2.0113   -1.2765 H   0  0  0  0  0  0  0  0  0 25
   -2.2652   -1.2281   -1.6931 H   0  0  0  0  0  0  0  0  0 26
   -5.6573    1.9299    0.0663 H   0  0  0  0  0  0  0  0  0 27
    1.2120    2.2630   -0.1101 H   0  0  0  0  0  0  0  0  0 28
   -0.4464    5.5876    2.0943 H   0  0  0  0  0  0  0  0  0 29
   -2.6572    5.0558    1.2333 H   0  0  0  0  0  0  0  0  0 30
   -4.5211    4.3264    0.7234 H   0  0  0  0  0  0  0  0  0 31
   -5.2277    3.6090   -0.7275 H   0  0  0  0  0  0  0  0  0 32
   -3.8253    4.9916   -2.2131 H   0  0  0  0  0  0  0  0  0 33
   -3.0542    5.7828   -0.8119 H   0  0  0  0  0  0  0  0  0 34
   -4.7977    5.9982   -1.1023 H   0  0  0  0  0  0  0  0  0 35
    2.6685    3.5681    1.0793 H   0  0  0  0  0  0  0  0  0 36
    5.1468    5.8827    3.7602 H   0  0  0  0  0  0  0  0  0 37
  3  2  1  0  0  0
  4  3  2  0  0  0
  5  4  1  0  0  0
  6  5  2  0  0  0
  1  2  2  0  0  0
  1  6  1  0  0  0
  8  7  1  0  0  0
  9  8  2  0  0  0
 10  9  1  0  0  0
  5  7  1  0  0  0
  4 10  1  0  0  0
 12 11  2  0  0  0
 13 12  1  0  0  0
 14 13  2  0  0  0
  9 11  1  0  0  0
  8 14  1  0  0  0
  7 15  1  0  0  0
 15 16  1  0  0  0
 12 17  1  0  0  0
 17 18  2  0  0  0
 18 19  1  0  0  0
 18 20  1  0  0  0
 20 21  2  0  0  0
 20 22  1  0  0  0
 19 23  3  0  0  0
  1 24  1  0  0  0
  2 25  1  0  0  0
  3 26  1  0  0  0
  6 27  1  0  0  0
 11 28  1  0  0  0
 13 29  1  0  0  0
 14 30  1  0  0  0
 15 31  1  0  0  0
 15 32  1  0  0  0
 16 33  1  0  0  0
 16 34  1  0  0  0
 16 35  1  0  0  0
 17 36  1  0  0  0
 22 37  1  0  0  0
M  END
