T3-41421
  MatStudio         3D                             0

 73 75  0  0  0  0  0  0  0  0999 V2000
   14.3833  -23.1805   11.2881 O   0  0  0  0  0  0  0  0  0  1
   17.6090  -25.9915    9.2116 O   0  0  0  0  0  0  0  0  0  2
   16.8170  -14.8317    0.5676 C   0  0  0  0  0  0  0  0  0  3
   17.4713  -16.0971    0.7180 O   0  0  0  0  0  0  0  0  0  4
   16.7462  -18.4314    4.0646 C   0  0  0  0  0  0  0  0  0  5
   17.5811  -18.8563    3.0107 C   0  0  0  0  0  0  0  0  0  6
   16.1750  -17.1513    3.9672 C   0  0  0  0  0  0  0  0  0  7
   17.8067  -18.0662    1.9108 C   0  0  0  0  0  0  0  0  0  8
   16.3973  -16.3489    2.8712 C   0  0  0  0  0  0  0  0  0  9
   17.2091  -16.8042    1.8247 C   0  0  0  0  0  0  0  0  0 10
   15.3652  -14.9850    0.2027 C   0  0  0  0  0  0  0  0  0 11
   14.6036  -13.6919    0.3781 C   0  0  0  0  0  0  0  0  0 12
   13.1278  -13.8362    0.0884 C   0  0  0  0  0  0  0  0  0 13
   12.3333  -12.5906    0.4016 C   0  0  0  0  0  0  0  0  0 14
   10.8466  -12.7554    0.1906 C   0  0  0  0  0  0  0  0  0 15
   10.0432  -11.5455    0.6061 C   0  0  0  0  0  0  0  0  0 16
    8.5519  -11.7247    0.4475 C   0  0  0  0  0  0  0  0  0 17
    7.7486  -10.5383    0.9261 C   0  0  0  0  0  0  0  0  0 18
    6.2558  -10.7244    0.7932 C   0  0  0  0  0  0  0  0  0 19
    5.4518   -9.5483    1.2969 C   0  0  0  0  0  0  0  0  0 20
    3.9614   -9.7568    1.1628 C   0  0  0  0  0  0  0  0  0 21
   16.5350  -19.3329    5.1409 C   0  0  0  0  0  0  0  0  0 22
   15.7201  -19.2492    6.2420 C   0  0  0  0  0  0  0  0  0 23
   14.8736  -18.1455    6.4853 C   0  0  0  0  0  0  0  0  0 24
   14.1420  -17.2673    6.7170 N   0  0  0  0  0  0  0  0  0 25
   15.6324  -20.2880    7.2314 C   0  0  0  0  0  0  0  0  0 26
   16.5825  -21.7030    7.1732 S   0  0  0  0  0  0  0  0  0 27
   14.7827  -20.2993    8.3380 C   0  0  0  0  0  0  0  0  0 28
   15.8536  -22.3373    8.6265 C   0  0  0  0  0  0  0  0  0 29
   14.9041  -21.4380    9.1143 C   0  0  0  0  0  0  0  0  0 30
   16.3130  -23.5938    9.0357 C   0  0  0  0  0  0  0  0  0 31
   16.0289  -24.4341   10.0892 C   0  0  0  0  0  0  0  0  0 32
   16.7876  -25.6850   10.0774 C   0  0  0  0  0  0  0  0  0 33
   15.0885  -24.1848   11.1591 C   0  0  0  0  0  0  0  0  0 34
   16.5442  -26.5543   11.1163 N   0  0  0  0  0  0  0  0  0 35
   14.9925  -25.1782   12.1155 N   0  0  0  0  0  0  0  0  0 36
   15.6730  -26.3639   12.1551 C   0  0  0  0  0  0  0  0  0 37
   15.5156  -27.1892   13.0474 O   0  0  0  0  0  0  0  0  0 38
   17.3817  -14.3150   -0.2240 H   0  0  0  0  0  0  0  0  0 39
   16.9376  -14.2465    1.4988 H   0  0  0  0  0  0  0  0  0 40
   18.0485  -19.8451    3.0738 H   0  0  0  0  0  0  0  0  0 41
   15.5364  -16.7681    4.7669 H   0  0  0  0  0  0  0  0  0 42
   18.4460  -18.4018    1.0889 H   0  0  0  0  0  0  0  0  0 43
   15.9323  -15.3607    2.8322 H   0  0  0  0  0  0  0  0  0 44
   14.9080  -15.7592    0.8486 H   0  0  0  0  0  0  0  0  0 45
   15.2779  -15.3533   -0.8356 H   0  0  0  0  0  0  0  0  0 46
   15.0380  -12.9014   -0.2650 H   0  0  0  0  0  0  0  0  0 47
   14.7319  -13.3382    1.4218 H   0  0  0  0  0  0  0  0  0 48
   12.7262  -14.6795    0.6861 H   0  0  0  0  0  0  0  0  0 49
   12.9809  -14.1195   -0.9728 H   0  0  0  0  0  0  0  0  0 50
   12.7053  -11.7450   -0.2110 H   0  0  0  0  0  0  0  0  0 51
   12.5175  -12.3029    1.4569 H   0  0  0  0  0  0  0  0  0 52
   10.4959  -13.6372    0.7649 H   0  0  0  0  0  0  0  0  0 53
   10.6447  -12.9890   -0.8742 H   0  0  0  0  0  0  0  0  0 54
   10.3739  -10.6617    0.0237 H   0  0  0  0  0  0  0  0  0 55
   10.2689  -11.3091    1.6661 H   0  0  0  0  0  0  0  0  0 56
    8.2330  -12.6289    1.0050 H   0  0  0  0  0  0  0  0  0 57
    8.3142  -11.9274   -0.6164 H   0  0  0  0  0  0  0  0  0 58
    8.0581   -9.6328    0.3655 H   0  0  0  0  0  0  0  0  0 59
    7.9977  -10.3349    1.9876 H   0  0  0  0  0  0  0  0  0 60
    5.9497  -11.6375    1.3437 H   0  0  0  0  0  0  0  0  0 61
    6.0004  -10.9146   -0.2692 H   0  0  0  0  0  0  0  0  0 62
    5.7588   -8.6384    0.7454 H   0  0  0  0  0  0  0  0  0 63
    5.7138   -9.3612    2.3566 H   0  0  0  0  0  0  0  0  0 64
    3.6358  -10.6464    1.7307 H   0  0  0  0  0  0  0  0  0 65
    3.6800   -9.9204    0.1073 H   0  0  0  0  0  0  0  0  0 66
    3.3850   -8.8926    1.5329 H   0  0  0  0  0  0  0  0  0 67
   17.1104  -20.2671    5.0625 H   0  0  0  0  0  0  0  0  0 68
   14.0926  -19.4775    8.5485 H   0  0  0  0  0  0  0  0  0 69
   14.3438  -21.6712   10.0224 H   0  0  0  0  0  0  0  0  0 70
   17.0804  -24.0429    8.3836 H   0  0  0  0  0  0  0  0  0 71
   17.0684  -27.4345   11.1198 H   0  0  0  0  0  0  0  0  0 72
   14.3300  -25.0121   12.8794 H   0  0  0  0  0  0  0  0  0 73
  5  6  1  0  0  0
  5  7  2  0  0  0
  6  8  2  0  0  0
  7  9  1  0  0  0
  8 10  1  0  0  0
  9 10  2  0  0  0
  4 10  1  0  0  0
  3  4  1  0  0  0
  3 11  1  0  0  0
 11 12  1  0  0  0
 12 13  1  0  0  0
 13 14  1  0  0  0
 14 15  1  0  0  0
 15 16  1  0  0  0
 16 17  1  0  0  0
 17 18  1  0  0  0
 18 19  1  0  0  0
 19 20  1  0  0  0
 20 21  1  0  0  0
  5 22  1  0  0  0
 22 23  2  0  0  0
 23 24  1  0  0  0
 24 25  3  0  0  0
 26 27  1  0  0  0
 26 28  2  0  0  0
 27 29  1  0  0  0
 28 30  1  0  0  0
 29 30  2  0  0  0
 23 26  1  0  0  0
 29 31  1  0  0  0
 32 33  1  0  0  0
 32 34  1  0  0  0
 33 35  1  0  0  0
 34 36  1  0  0  0
 35 37  1  0  0  0
 36 37  1  0  0  0
 31 32  2  0  0  0
  2 33  2  0  0  0
  1 34  2  0  0  0
 37 38  2  0  0  0
  3 39  1  0  0  0
  3 40  1  0  0  0
  6 41  1  0  0  0
  7 42  1  0  0  0
  8 43  1  0  0  0
  9 44  1  0  0  0
 11 45  1  0  0  0
 11 46  1  0  0  0
 12 47  1  0  0  0
 12 48  1  0  0  0
 13 49  1  0  0  0
 13 50  1  0  0  0
 14 51  1  0  0  0
 14 52  1  0  0  0
 15 53  1  0  0  0
 15 54  1  0  0  0
 16 55  1  0  0  0
 16 56  1  0  0  0
 17 57  1  0  0  0
 17 58  1  0  0  0
 18 59  1  0  0  0
 18 60  1  0  0  0
 19 61  1  0  0  0
 19 62  1  0  0  0
 20 63  1  0  0  0
 20 64  1  0  0  0
 21 65  1  0  0  0
 21 66  1  0  0  0
 21 67  1  0  0  0
 22 68  1  0  0  0
 28 69  1  0  0  0
 30 70  1  0  0  0
 31 71  1  0  0  0
 35 72  1  0  0  0
 36 73  1  0  0  0
M  END
