C5AD-BTD-CNCOOH_1-9175
  MatStudio         3D                             0

 78 85  0  0  0  0  0  0  0  0999 V2000
   -0.3684   -6.1845    3.6722 C   0  0  0  0  0  0  0  0  0  1
   -1.3018   -5.1527    3.4235 C   0  0  0  0  0  0  0  0  0  2
   -1.2944   -4.4659    2.1755 C   0  0  0  0  0  0  0  0  0  3
   -0.4347   -4.9623    1.1617 C   0  0  0  0  0  0  0  0  0  4
    0.4477   -6.0002    1.3961 C   0  0  0  0  0  0  0  0  0  5
    0.5041   -6.5896    2.6748 C   0  0  0  0  0  0  0  0  0  6
   -2.1981   -3.3601    1.9434 C   0  0  0  0  0  0  0  0  0  7
   -3.3069   -3.2235    2.8643 C   0  0  0  0  0  0  0  0  0  8
   -3.2883   -3.9315    4.1057 C   0  0  0  0  0  0  0  0  0  9
   -2.2456   -4.8116    4.3873 N   0  0  0  0  0  0  0  0  0 10
   -4.3056   -3.7180    5.0620 C   0  0  0  0  0  0  0  0  0 11
   -5.3523   -2.8521    4.7870 C   0  0  0  0  0  0  0  0  0 12
   -5.4040   -2.1655    3.5581 C   0  0  0  0  0  0  0  0  0 13
   -4.3932   -2.3402    2.6315 C   0  0  0  0  0  0  0  0  0 14
   -2.0488   -2.4642    0.8535 C   0  0  0  0  0  0  0  0  0 15
   -0.8720   -1.9876    0.2611 C   0  0  0  0  0  0  0  0  0 16
    0.4283   -2.0406    0.7877 C   0  0  0  0  0  0  0  0  0 17
    1.5636   -1.6040    0.1033 C   0  0  0  0  0  0  0  0  0 18
    2.8365   -1.5895    0.6926 C   0  0  0  0  0  0  0  0  0 19
    3.4944   -2.2474   -2.1751 C   0  0  0  0  0  0  0  0  0 20
    4.3038   -1.4317   -1.3440 C   0  0  0  0  0  0  0  0  0 21
    5.4271   -0.7782   -1.9391 C   0  0  0  0  0  0  0  0  0 22
    5.6395   -0.8821   -3.3317 C   0  0  0  0  0  0  0  0  0 23
    4.7914   -1.6505   -4.1175 C   0  0  0  0  0  0  0  0  0 24
    3.7222   -2.3558   -3.5378 C   0  0  0  0  0  0  0  0  0 25
    6.3065   -0.0608   -1.1389 N   0  3  0  0  0  0  0  0  0 26
    6.3201   -0.2584    0.2372 C   0  0  0  0  0  0  0  0  0 27
    5.2169   -0.9048    0.8779 C   0  0  0  0  0  0  0  0  0 28
    4.0719   -1.3100    0.0800 C   0  0  0  0  0  0  0  0  0 29
    5.2691   -1.0722    2.2833 C   0  0  0  0  0  0  0  0  0 30
    6.3480   -0.6346    3.0331 C   0  0  0  0  0  0  0  0  0 31
    7.4246    0.0032    2.3905 C   0  0  0  0  0  0  0  0  0 32
    7.4138    0.1872    1.0149 C   0  0  0  0  0  0  0  0  0 33
   -0.3508   -6.6805    4.6407 H   0  0  0  0  0  0  0  0  0 34
    1.2085   -7.3974    2.8787 H   0  0  0  0  0  0  0  0  0 35
   -4.2744   -4.2452    6.0140 H   0  0  0  0  0  0  0  0  0 36
   -6.1381   -2.7101    5.5306 H   0  0  0  0  0  0  0  0  0 37
   -2.9631   -2.0113    0.4651 H   0  0  0  0  0  0  0  0  0 38
   -1.0016   -1.4255   -0.6698 H   0  0  0  0  0  0  0  0  0 39
    1.4375   -1.2404   -0.9207 H   0  0  0  0  0  0  0  0  0 40
    2.8423   -1.7469    1.7729 H   0  0  0  0  0  0  0  0  0 41
    6.4988   -0.4025   -3.7938 H   0  0  0  0  0  0  0  0  0 42
    4.9896   -1.7387   -5.1870 H   0  0  0  0  0  0  0  0  0 43
    8.2869    0.3417    2.9672 H   0  0  0  0  0  0  0  0  0 44
    8.2747    0.6486    0.5378 H   0  0  0  0  0  0  0  0  0 45
   -0.4883   -4.5158    0.1711 H   0  0  0  0  0  0  0  0  0 46
    1.0894   -6.3636    0.5927 H   0  0  0  0  0  0  0  0  0 47
   -6.2322   -1.4896    3.3423 H   0  0  0  0  0  0  0  0  0 48
   -4.4386   -1.7850    1.6961 H   0  0  0  0  0  0  0  0  0 49
    2.7052   -2.8388   -1.7143 H   0  0  0  0  0  0  0  0  0 50
    3.0936   -3.0055   -4.1471 H   0  0  0  0  0  0  0  0  0 51
    4.4494   -1.5765    2.7922 H   0  0  0  0  0  0  0  0  0 52
    6.3634   -0.7920    4.1121 H   0  0  0  0  0  0  0  0  0 53
    0.5728   -2.4576    1.7882 H   0  0  0  0  0  0  0  0  0 54
   -0.4220   -7.5986   10.2435 C   0  0  0  0  0  0  0  0  0 55
   -0.4365   -8.4460   11.4696 C   0  0  0  0  0  0  0  0  0 56
    0.5648   -8.6682   12.1449 O   0  0  0  0  0  0  0  0  0 57
   -1.6651   -8.9333   11.7657 O   0  0  0  0  0  0  0  0  0 58
   -1.5416   -7.4339    9.4713 C   0  0  0  0  0  0  0  0  0 59
   -1.5666   -9.4810   12.5746 H   0  0  0  0  0  0  0  0  0 60
   -2.4075   -8.0230    9.7777 H   0  0  0  0  0  0  0  0  0 61
   -2.1291   -5.4001    5.6944 C   0  0  0  0  0  0  0  0  0 62
   -2.7925   -6.5662    6.0305 C   0  0  0  0  0  0  0  0  0 63
   -2.6178   -7.1667    7.2991 C   0  0  0  0  0  0  0  0  0 64
   -1.7323   -6.6666    8.2594 C   0  0  0  0  0  0  0  0  0 65
   -1.0955   -5.4188    7.9544 C   0  0  0  0  0  0  0  0  0 66
   -1.2945   -4.7868    6.6668 C   0  0  0  0  0  0  0  0  0 67
   -0.6528   -3.6058    6.5351 N   0  0  0  0  0  0  0  0  0 68
   -0.3298   -4.6805    8.7845 N   0  0  0  0  0  0  0  0  0 69
   -3.4501   -7.0376    5.2991 H   0  0  0  0  0  0  0  0  0 70
   -3.1576   -8.0901    7.5112 H   0  0  0  0  0  0  0  0  0 71
    0.0997   -3.3446    7.9580 S   0  0  0  0  0  0  0  0  0 72
    7.2990    0.8226   -1.7614 C   0  0  0  0  0  0  0  0  0 73
    8.2187    0.2787   -2.0239 H   0  0  0  0  0  0  0  0  0 74
    7.5375    1.6369   -1.0706 H   0  0  0  0  0  0  0  0  0 75
    6.8651    1.2674   -2.6620 H   0  0  0  0  0  0  0  0  0 76
    0.8647   -7.0970    9.8964 C   0  0  0  0  0  0  0  0  0 77
    1.9398   -6.7556    9.5812 N   0  0  0  0  0  0  0  0  0 78
  1  2  1  0  0  0
  1  6  2  0  0  0
  1 34  1  0  0  0
  2  3  2  0  0  0
  2 10  1  0  0  0
  3  4  1  0  0  0
  3  7  1  0  0  0
  4  5  2  0  0  0
  5  6  1  0  0  0
  6 35  1  0  0  0
  7  8  1  0  0  0
  7 15  2  0  0  0
  8  9  2  0  0  0
  8 14  1  0  0  0
  9 10  1  0  0  0
  9 11  1  0  0  0
 11 12  2  0  0  0
 11 36  1  0  0  0
 12 13  1  0  0  0
 12 37  1  0  0  0
 13 14  2  0  0  0
 15 16  1  0  0  0
 15 38  1  0  0  0
 16 17  2  0  0  0
 16 39  1  0  0  0
 17 18  1  0  0  0
 18 19  2  0  0  0
 18 40  1  0  0  0
 19 29  1  0  0  0
 19 41  1  0  0  0
 20 21  1  0  0  0
 20 25  2  0  0  0
 21 22  1  0  0  0
 21 29  2  0  0  0
 22 23  1  0  0  0
 22 26  2  0  0  0
 23 24  2  0  0  0
 23 42  1  0  0  0
 24 25  1  0  0  0
 24 43  1  0  0  0
 26 27  1  0  0  0
 27 28  2  0  0  0
 27 33  1  0  0  0
 28 29  1  0  0  0
 28 30  1  0  0  0
 30 31  2  0  0  0
 31 32  1  0  0  0
 32 33  2  0  0  0
 32 44  1  0  0  0
 33 45  1  0  0  0
  4 46  1  0  0  0
  5 47  1  0  0  0
 13 48  1  0  0  0
 14 49  1  0  0  0
 20 50  1  0  0  0
 25 51  1  0  0  0
 30 52  1  0  0  0
 31 53  1  0  0  0
 17 54  1  0  0  0
 55 56  1  0  0  0
 56 57  2  0  0  0
 56 58  1  0  0  0
 55 59  2  0  0  0
 58 60  1  0  0  0
 59 61  1  0  0  0
 64 63  1  0  0  0
 65 64  2  0  0  0
 66 65  1  0  0  0
 67 66  1  0  0  0
 62 63  2  0  0  0
 62 67  1  0  0  0
 67 68  2  0  0  0
 66 69  2  0  0  0
 65 59  1  0  0  0
 63 70  1  0  0  0
 64 71  1  0  0  0
 69 72  1  0  0  0
 10 62  1  0  0  0
 26 73  1  0  0  0
 73 74  1  0  0  0
 73 75  1  0  0  0
 73 76  1  0  0  0
 68 72  1  0  0  0
 77 78  3  0  0  0
 77 55  1  0  0  0
M  END
